<?xml version="1.0" encoding="UTF-8"?>


<routes xmlns:xsi="http://www.w3.org/2001/XMLSchema-instance" xsi:noNamespaceSchemaLocation="http://sumo.dlr.de/xsd/routes_file.xsd">
    <!-- VTypes -->
    <vType id="t_0" vClass="passenger" length="5.0" maxSpeed="100" accel="2.5" decel="4.5"/>
    <!-- Routes -->
    <route id="r1" edges="E0 E1 E2 E3"/>
    <route id="r2" edges="E0 E1 E2 E3"/>
</routes>
