<?xml version="1.0" encoding="UTF-8"?>

<!-- generated on 2025-12-08T16:22:11.416418+01:00 by Eclipse SUMO netconvert v1_24_0+1845-01be9a8093d
<netconvertConfiguration xmlns:xsi="http://www.w3.org/2001/XMLSchema-instance" xsi:noNamespaceSchemaLocation="http://sumo.dlr.de/xsd/netconvertConfiguration.xsd">

    <input>
        <osm-files value="map.osm"/>
    </input>

    <output>
        <output-file value="frankfurt_kfz.net.xml"/>
    </output>

    <projection>
        <proj.utm value="true"/>
    </projection>

    <edge_removal>
        <keep-edges.by-vclass value="passenger"/>
    </edge_removal>

</netconvertConfiguration>
-->

<net version="1.20" junctionCornerDetail="5" limitTurnSpeed="5.50" xmlns:xsi="http://www.w3.org/2001/XMLSchema-instance" xsi:noNamespaceSchemaLocation="http://sumo.dlr.de/xsd/net_file.xsd">

    <location netOffset="-474694.74,-5550566.09" convBoundary="0.00,0.00,2354.68,1408.37" origBoundary="8.643362,50.103068,8.687672,50.120049" projParameter="+proj=utm +zone=32 +ellps=WGS84 +datum=WGS84 +units=m +no_defs"/>

    <type id="highway.living_street" priority="2" numLanes="1" speed="2.78" disallow="tram rail_urban rail rail_electric rail_fast ship container cable_car subway aircraft wheelchair scooter drone" oneway="0"/>
    <type id="highway.primary" priority="12" numLanes="2" speed="27.78" disallow="tram rail_urban rail rail_electric rail_fast ship container cable_car subway aircraft wheelchair scooter drone" oneway="0"/>
    <type id="highway.primary_link" priority="7" numLanes="1" speed="22.22" disallow="tram rail_urban rail rail_electric rail_fast ship container cable_car subway aircraft wheelchair scooter drone" oneway="0"/>
    <type id="highway.residential" priority="3" numLanes="1" speed="13.89" disallow="tram rail_urban rail rail_electric rail_fast ship container cable_car subway aircraft wheelchair scooter drone" oneway="0"/>
    <type id="highway.secondary" priority="11" numLanes="1" speed="27.78" disallow="tram rail_urban rail rail_electric rail_fast ship container cable_car subway aircraft wheelchair scooter drone" oneway="0"/>
    <type id="highway.secondary_link" priority="6" numLanes="1" speed="22.22" disallow="tram rail_urban rail rail_electric rail_fast ship container cable_car subway aircraft wheelchair scooter drone" oneway="0"/>
    <type id="highway.tertiary" priority="10" numLanes="1" speed="22.22" disallow="tram rail_urban rail rail_electric rail_fast ship container cable_car subway aircraft wheelchair scooter drone" oneway="0"/>
    <type id="highway.unclassified" priority="4" numLanes="1" speed="13.89" disallow="tram rail_urban rail rail_electric rail_fast ship container cable_car subway aircraft wheelchair scooter drone" oneway="0"/>

    <edge id=":1005790888_0" function="internal">
        <lane id=":1005790888_0_0" index="0" disallow="tram rail_urban rail rail_electric rail_fast ship container cable_car subway aircraft wheelchair scooter drone" speed="13.89" length="15.40" shape="361.41,209.81 366.36,209.92 370.13,209.95 373.37,209.72 376.73,209.07"/>
    </edge>
    <edge id=":1005790888_1" function="internal">
        <lane id=":1005790888_1_0" index="0" disallow="tram rail_urban rail rail_electric rail_fast ship container cable_car subway aircraft wheelchair scooter drone" speed="13.89" length="8.21" shape="361.35,213.01 363.68,213.46 365.17,214.39 366.66,215.28 368.99,215.63"/>
    </edge>
    <edge id=":1005790903_0" function="internal">
        <lane id=":1005790903_0_0" index="0" disallow="tram rail_urban rail rail_electric rail_fast ship container cable_car subway aircraft wheelchair scooter drone" speed="13.89" length="0.20" shape="404.55,196.75 404.60,196.72 404.63,196.69 404.66,196.66 404.70,196.62"/>
    </edge>
    <edge id=":1005859326_0" function="internal">
        <lane id=":1005859326_0_0" index="0" disallow="tram rail_urban rail rail_electric rail_fast ship container cable_car subway aircraft wheelchair scooter drone" speed="13.89" length="0.43" shape="398.25,201.94 398.37,201.89 398.45,201.84 398.52,201.79 398.62,201.71"/>
    </edge>
    <edge id=":10069243915_0" function="internal">
        <lane id=":10069243915_0_0" index="0" disallow="tram rail_urban rail rail_electric rail_fast ship container cable_car subway aircraft wheelchair scooter drone" speed="13.89" length="0.55" shape="2203.12,296.54 2203.05,296.69 2202.99,296.78 2202.92,296.87 2202.80,296.99"/>
    </edge>
    <edge id=":1009316714_0" function="internal">
        <lane id=":1009316714_0_0" index="0" disallow="tram rail_urban rail rail_electric rail_fast ship container cable_car subway aircraft wheelchair scooter drone" speed="13.89" length="1.36" shape="554.53,438.74 554.73,438.76 554.87,438.76 555.00,438.73 555.19,438.66"/>
        <lane id=":1009316714_0_1" index="1" disallow="tram rail_urban rail rail_electric rail_fast ship container cable_car subway aircraft wheelchair scooter drone" speed="8.60" length="1.36" shape="554.23,441.93 554.83,441.98 555.25,441.97 555.65,441.88 556.23,441.69"/>
    </edge>
    <edge id=":1009316742_0" function="internal">
        <lane id=":1009316742_0_0" index="0" disallow="tram rail_urban rail rail_electric rail_fast ship container cable_car subway aircraft wheelchair scooter drone" speed="13.89" length="0.28" shape="623.54,275.57 623.52,275.85"/>
    </edge>
    <edge id=":1009316742_1" function="internal">
        <lane id=":1009316742_1_0" index="0" disallow="tram rail_urban rail rail_electric rail_fast ship container cable_car subway aircraft wheelchair scooter drone" speed="13.89" length="0.15" shape="620.34,275.51 620.35,275.36"/>
    </edge>
    <edge id=":1009316783_0" function="internal">
        <lane id=":1009316783_0_0" index="0" disallow="tram rail_urban rail rail_electric rail_fast ship container cable_car subway aircraft wheelchair scooter drone" speed="13.89" length="12.70" width="6.50" shape="580.48,471.00 578.77,468.08 577.17,465.59 575.48,463.16 573.50,460.40"/>
    </edge>
    <edge id=":1009316783_1" function="internal">
        <lane id=":1009316783_1_0" index="0" disallow="tram rail_urban rail rail_electric rail_fast ship container cable_car subway aircraft wheelchair scooter drone" speed="11.09" length="13.15" width="4.60" shape="580.48,471.00 579.32,468.14 578.90,465.07 579.24,461.78 580.34,458.29"/>
    </edge>
    <edge id=":1009316794_0" function="internal">
        <lane id=":1009316794_0_0" index="0" disallow="tram rail_urban rail rail_electric rail_fast ship container cable_car subway aircraft wheelchair scooter drone" speed="13.89" length="0.41" width="7.60" shape="544.84,448.03 544.71,448.03 544.63,448.03 544.55,448.02 544.42,448.01"/>
    </edge>
    <edge id=":1018881109_0" function="internal">
        <lane id=":1018881109_0_0" index="0" disallow="tram rail_urban rail rail_electric rail_fast ship container cable_car subway aircraft wheelchair scooter drone" speed="8.33" length="3.49" width="4.90" shape="1061.78,452.11 1060.99,451.54 1060.67,450.84 1060.35,450.14 1059.56,449.57"/>
    </edge>
    <edge id=":1018881109_1" function="internal">
        <lane id=":1018881109_1_0" index="0" disallow="tram rail_urban rail rail_electric rail_fast ship container cable_car subway aircraft wheelchair scooter drone" speed="3.59" length="4.53" width="3.10" shape="1061.78,452.11 1060.99,450.96 1060.91,450.10 1061.56,449.52 1062.93,449.23"/>
    </edge>
    <edge id=":1018910469_0" function="internal">
        <lane id=":1018910469_0_0" index="0" disallow="tram rail_urban rail rail_electric rail_fast ship container cable_car subway aircraft wheelchair scooter drone" speed="6.16" length="1.82" width="6.00" shape="1040.35,881.15 1039.86,881.36 1039.54,881.55 1039.28,881.82 1038.97,882.25"/>
    </edge>
    <edge id=":1018910472_0" function="internal">
        <lane id=":1018910472_0_0" index="0" disallow="tram rail_urban rail rail_electric rail_fast ship container cable_car subway aircraft wheelchair scooter drone" speed="8.33" length="0.24" width="5.10" shape="1033.18,873.66 1033.13,873.71 1033.10,873.75 1033.06,873.78 1033.01,873.83"/>
    </edge>
    <edge id=":10260877602_0" function="internal">
        <lane id=":10260877602_0_0" index="0" disallow="tram rail_urban rail rail_electric rail_fast ship container cable_car subway aircraft wheelchair scooter drone" speed="13.89" length="3.06" shape="2202.83,298.00 2203.80,295.10"/>
    </edge>
    <edge id=":10260877603_0" function="internal">
        <lane id=":10260877603_0_0" index="0" disallow="tram rail_urban rail rail_electric rail_fast ship container cable_car subway aircraft wheelchair scooter drone" speed="13.89" length="0.59" shape="2202.01,297.78 2201.89,297.90 2201.79,297.98 2201.69,298.04 2201.53,298.11"/>
    </edge>
    <edge id=":10260877604_0" function="internal">
        <lane id=":10260877604_0_0" index="0" disallow="tram rail_urban rail rail_electric rail_fast ship container cable_car subway aircraft wheelchair scooter drone" speed="13.89" length="2.46" shape="2205.91,296.12 2206.62,298.47"/>
    </edge>
    <edge id=":10260877605_0" function="internal">
        <lane id=":10260877605_0_0" index="0" disallow="tram rail_urban rail rail_electric rail_fast ship container cable_car subway aircraft wheelchair scooter drone" speed="11.11" length="4.91" width="3.00" shape="2171.58,285.58 2175.38,288.70"/>
    </edge>
    <edge id=":10260877606_0" function="internal">
        <lane id=":10260877606_0_0" index="0" disallow="tram rail_urban rail rail_electric rail_fast ship container cable_car subway aircraft wheelchair scooter drone" speed="13.89" length="0.10" shape="1843.23,165.95 1843.23,165.95"/>
    </edge>
    <edge id=":10260877607_0" function="internal">
        <lane id=":10260877607_0_0" index="0" disallow="tram rail_urban rail rail_electric rail_fast ship container cable_car subway aircraft wheelchair scooter drone" speed="13.89" length="0.10" shape="1840.23,161.38 1840.23,161.38"/>
    </edge>
    <edge id=":10300723066_0" function="internal">
        <lane id=":10300723066_0_0" index="0" disallow="tram rail_urban rail rail_electric rail_fast ship container cable_car subway aircraft wheelchair scooter drone" speed="13.89" length="8.21" shape="514.94,640.33 516.76,638.76 517.76,637.40 518.76,636.03 520.58,634.45"/>
        <lane id=":10300723066_0_1" index="1" disallow="tram rail_urban rail rail_electric rail_fast ship container cable_car subway aircraft wheelchair scooter drone" speed="13.89" length="8.21" shape="516.76,642.96 518.59,641.39 519.59,640.02 520.59,638.65 522.41,637.08"/>
        <lane id=":10300723066_0_2" index="2" disallow="tram rail_urban rail rail_electric rail_fast ship container cable_car subway aircraft wheelchair scooter drone" speed="13.89" length="8.21" shape="518.59,645.59 520.41,644.02 521.42,642.65 522.42,641.28 524.24,639.70"/>
        <lane id=":10300723066_0_3" index="3" disallow="tram rail_urban rail rail_electric rail_fast ship container cable_car subway aircraft wheelchair scooter drone" speed="13.89" length="8.21" shape="518.59,645.59 520.70,644.43 522.34,643.96 523.97,643.49 526.08,642.32"/>
    </edge>
    <edge id=":10300723067_0" function="internal">
        <lane id=":10300723067_0_0" index="0" disallow="tram rail_urban rail rail_electric rail_fast ship container cable_car subway aircraft wheelchair scooter drone" speed="13.89" length="0.30" shape="588.66,587.11 588.90,586.94"/>
        <lane id=":10300723067_0_1" index="1" disallow="tram rail_urban rail rail_electric rail_fast ship container cable_car subway aircraft wheelchair scooter drone" speed="13.89" length="0.30" shape="590.49,589.74 590.73,589.57"/>
        <lane id=":10300723067_0_2" index="2" disallow="tram rail_urban rail rail_electric rail_fast ship container cable_car subway aircraft wheelchair scooter drone" speed="13.89" length="0.30" shape="592.31,592.37 592.56,592.20"/>
        <lane id=":10300723067_0_3" index="3" disallow="tram rail_urban rail rail_electric rail_fast ship container cable_car subway aircraft wheelchair scooter drone" speed="13.89" length="0.30" shape="594.13,595.00 594.38,594.83"/>
    </edge>
    <edge id=":10300723068_0" function="internal">
        <lane id=":10300723068_0_0" index="0" disallow="tram rail_urban rail rail_electric rail_fast ship container cable_car subway aircraft wheelchair scooter drone" speed="13.89" length="0.30" shape="690.79,518.27 691.04,518.09"/>
        <lane id=":10300723068_0_1" index="1" disallow="tram rail_urban rail rail_electric rail_fast ship container cable_car subway aircraft wheelchair scooter drone" speed="13.89" length="0.30" shape="692.60,520.90 692.84,520.74"/>
        <lane id=":10300723068_0_2" index="2" disallow="tram rail_urban rail rail_electric rail_fast ship container cable_car subway aircraft wheelchair scooter drone" speed="13.89" length="0.30" shape="694.41,523.54 694.64,523.38"/>
    </edge>
    <edge id=":10300723069_0" function="internal">
        <lane id=":10300723069_0_0" index="0" disallow="tram rail_urban rail rail_electric rail_fast ship container cable_car subway aircraft wheelchair scooter drone" speed="13.89" length="0.64" shape="901.06,376.12 901.11,376.10 901.15,376.07 901.18,376.05 901.24,376.02"/>
        <lane id=":10300723069_0_1" index="1" disallow="tram rail_urban rail rail_electric rail_fast ship container cable_car subway aircraft wheelchair scooter drone" speed="13.89" length="0.64" shape="902.53,378.97 902.69,378.88 902.81,378.82 902.92,378.75 903.07,378.64"/>
        <lane id=":10300723069_0_2" index="2" disallow="tram rail_urban rail rail_electric rail_fast ship container cable_car subway aircraft wheelchair scooter drone" speed="13.89" length="0.64" shape="904.00,381.81 904.28,381.66 904.47,381.56 904.65,381.44 904.90,381.26"/>
    </edge>
    <edge id=":10313879630_0" function="internal">
        <lane id=":10313879630_0_0" index="0" disallow="tram rail_urban rail rail_electric rail_fast ship container cable_car subway aircraft wheelchair scooter drone" speed="13.89" length="0.30" shape="1785.01,966.47 1785.02,966.77"/>
        <lane id=":10313879630_0_1" index="1" disallow="tram rail_urban rail rail_electric rail_fast ship container cable_car subway aircraft wheelchair scooter drone" speed="13.89" length="0.30" shape="1781.82,966.61 1781.83,966.91"/>
    </edge>
    <edge id=":10315192782_0" function="internal">
        <lane id=":10315192782_0_0" index="0" disallow="tram rail_urban rail rail_electric rail_fast ship container cable_car subway aircraft wheelchair scooter drone" speed="8.33" length="0.30" shape="639.37,1240.71 639.67,1240.67"/>
    </edge>
    <edge id=":1033446263_0" function="internal">
        <lane id=":1033446263_0_0" index="0" disallow="tram rail_urban rail rail_electric rail_fast ship container cable_car subway aircraft wheelchair scooter drone" speed="13.89" length="0.32" shape="1757.23,956.37 1756.93,956.48"/>
    </edge>
    <edge id=":1033446263_1" function="internal">
        <lane id=":1033446263_1_0" index="0" disallow="tram rail_urban rail rail_electric rail_fast ship container cable_car subway aircraft wheelchair scooter drone" speed="13.89" length="0.29" shape="1753.66,947.45 1753.92,947.36"/>
        <lane id=":1033446263_1_1" index="1" disallow="tram rail_urban rail rail_electric rail_fast ship container cable_car subway aircraft wheelchair scooter drone" speed="13.89" length="0.29" shape="1754.75,950.46 1755.02,950.36"/>
        <lane id=":1033446263_1_2" index="2" disallow="tram rail_urban rail rail_electric rail_fast ship container cable_car subway aircraft wheelchair scooter drone" speed="13.89" length="0.29" shape="1755.84,953.47 1756.13,953.36"/>
    </edge>
    <edge id=":1033446611_0" function="internal">
        <lane id=":1033446611_0_0" index="0" disallow="tram rail_urban rail rail_electric rail_fast ship container cable_car subway aircraft wheelchair scooter drone" speed="8.33" length="0.10" shape="1560.38,930.26 1560.38,930.26"/>
    </edge>
    <edge id=":1033446651_0" function="internal">
        <lane id=":1033446651_0_0" index="0" disallow="tram rail_urban rail rail_electric rail_fast ship container cable_car subway aircraft wheelchair scooter drone" speed="13.89" length="11.11" shape="1708.04,974.09 1697.60,977.91"/>
    </edge>
    <edge id=":1033446651_1" function="internal">
        <lane id=":1033446651_1_0" index="0" allow="bicycle" speed="8.38" length="1.99" shape="1708.04,974.09 1706.05,974.05"/>
    </edge>
    <edge id=":1033446651_2" function="internal">
        <lane id=":1033446651_2_0" index="0" disallow="tram rail_urban rail rail_electric rail_fast ship container cable_car subway aircraft wheelchair scooter drone" speed="3.65" length="1.44" shape="1708.04,974.09 1706.64,973.74"/>
    </edge>
    <edge id=":1033446651_8" function="internal">
        <lane id=":1033446651_8_0" index="0" allow="bicycle" speed="8.38" length="12.44" shape="1706.05,974.05 1705.88,974.05 1703.57,972.44 1701.12,969.26 1698.51,964.50"/>
    </edge>
    <edge id=":1033446651_9" function="internal">
        <lane id=":1033446651_9_0" index="0" disallow="tram rail_urban rail rail_electric rail_fast ship container cable_car subway aircraft wheelchair scooter drone" speed="3.65" length="3.23" shape="1706.64,973.74 1705.99,973.12 1706.10,972.24 1706.96,971.08"/>
    </edge>
    <edge id=":1033446651_3" function="internal">
        <lane id=":1033446651_3_0" index="0" disallow="tram rail_urban rail rail_electric rail_fast ship container cable_car subway aircraft wheelchair scooter drone" speed="5.58" length="6.82" shape="1694.27,968.90 1696.56,967.88 1698.03,966.80 1698.68,965.67 1698.51,964.50"/>
    </edge>
    <edge id=":1033446651_4" function="internal">
        <lane id=":1033446651_4_0" index="0" disallow="tram rail_urban rail rail_electric rail_fast ship container cable_car subway aircraft wheelchair scooter drone" speed="13.89" length="11.17" shape="1694.27,968.90 1704.79,965.06"/>
        <lane id=":1033446651_4_1" index="1" disallow="tram rail_urban rail rail_electric rail_fast ship container cable_car subway aircraft wheelchair scooter drone" speed="13.89" length="11.17" shape="1695.38,971.90 1705.87,968.07"/>
        <lane id=":1033446651_4_2" index="2" disallow="tram rail_urban rail rail_electric rail_fast ship container cable_car subway aircraft wheelchair scooter drone" speed="13.89" length="11.17" shape="1696.49,974.91 1706.96,971.08"/>
    </edge>
    <edge id=":1033446651_7" function="internal">
        <lane id=":1033446651_7_0" index="0" disallow="tram rail_urban rail rail_electric rail_fast ship container cable_car subway aircraft wheelchair scooter drone" speed="3.65" length="1.44" shape="1696.49,974.91 1697.89,975.24"/>
    </edge>
    <edge id=":1033446651_10" function="internal">
        <lane id=":1033446651_10_0" index="0" disallow="tram rail_urban rail rail_electric rail_fast ship container cable_car subway aircraft wheelchair scooter drone" speed="3.65" length="3.23" shape="1697.89,975.24 1698.55,975.85 1698.45,976.74 1697.60,977.91"/>
    </edge>
    <edge id=":1033446677_0" function="internal">
        <lane id=":1033446677_0_0" index="0" disallow="pedestrian tram rail_urban rail rail_electric rail_fast ship container cable_car subway aircraft wheelchair scooter drone" speed="13.89" length="6.92" shape="1783.18,925.38 1783.90,927.37 1784.71,928.64 1785.42,929.92 1785.83,931.95"/>
        <lane id=":1033446677_0_1" index="1" disallow="pedestrian tram rail_urban rail rail_electric rail_fast ship container cable_car subway aircraft wheelchair scooter drone" speed="13.89" length="6.92" shape="1780.07,926.12 1780.76,927.97 1781.55,929.13 1782.24,930.32 1782.64,932.21"/>
    </edge>
    <edge id=":1033446679_0" function="internal">
        <lane id=":1033446679_0_0" index="0" disallow="tram rail_urban rail rail_electric rail_fast ship container cable_car subway aircraft wheelchair scooter drone" speed="8.33" length="0.30" width="6.10" shape="1303.91,854.43 1303.61,854.45"/>
    </edge>
    <edge id=":1033447238_0" function="internal">
        <lane id=":1033447238_0_0" index="0" disallow="tram rail_urban rail rail_electric rail_fast ship container cable_car subway aircraft wheelchair scooter drone" speed="8.33" length="0.25" shape="1648.88,939.93 1648.63,939.90"/>
    </edge>
    <edge id=":1033447250_0" function="internal">
        <lane id=":1033447250_0_0" index="0" disallow="pedestrian tram rail_urban rail rail_electric rail_fast ship container cable_car subway aircraft wheelchair scooter drone" speed="13.89" length="8.19" shape="1772.41,973.73 1772.01,971.34 1771.37,969.77 1770.74,968.19 1770.37,965.81"/>
        <lane id=":1033447250_0_1" index="1" disallow="pedestrian tram rail_urban rail rail_electric rail_fast ship container cable_car subway aircraft wheelchair scooter drone" speed="13.89" length="8.19" shape="1775.61,973.53 1775.21,971.16 1774.56,969.59 1773.93,968.02 1773.56,965.65"/>
        <lane id=":1033447250_0_2" index="2" disallow="pedestrian tram rail_urban rail rail_electric rail_fast ship container cable_car subway aircraft wheelchair scooter drone" speed="13.89" length="8.19" shape="1778.80,973.33 1778.40,970.97 1777.76,969.41 1777.13,967.85 1776.76,965.49"/>
    </edge>
    <edge id=":1033447789_0" function="internal">
        <lane id=":1033447789_0_0" index="0" disallow="tram rail_urban rail rail_electric rail_fast ship container cable_car subway aircraft wheelchair scooter drone" speed="8.33" length="0.10" width="5.30" shape="1303.02,805.44 1303.02,805.44"/>
    </edge>
    <edge id=":1033447988_0" function="internal">
        <lane id=":1033447988_0_0" index="0" disallow="tram rail_urban rail rail_electric rail_fast ship container cable_car subway aircraft wheelchair scooter drone" speed="8.33" length="0.29" shape="1562.29,829.49 1561.99,829.51"/>
    </edge>
    <edge id=":1033448097_0" function="internal">
        <lane id=":1033448097_0_0" index="0" disallow="tram rail_urban rail rail_electric rail_fast ship container cable_car subway aircraft wheelchair scooter drone" speed="13.89" length="8.12" shape="1766.83,935.59 1766.04,933.39 1765.12,932.02 1764.18,930.65 1763.29,928.47"/>
        <lane id=":1033448097_0_1" index="1" disallow="tram rail_urban rail rail_electric rail_fast ship container cable_car subway aircraft wheelchair scooter drone" speed="13.89" length="8.12" shape="1769.94,934.85 1769.14,932.60 1768.22,931.20 1767.26,929.81 1766.37,927.59"/>
        <lane id=":1033448097_0_2" index="2" disallow="tram rail_urban rail rail_electric rail_fast ship container cable_car subway aircraft wheelchair scooter drone" speed="13.89" length="8.12" shape="1769.94,934.85 1769.62,932.45 1769.76,930.75 1769.86,929.07 1769.44,926.70"/>
    </edge>
    <edge id=":10572662434_0" function="internal">
        <lane id=":10572662434_0_0" index="0" disallow="pedestrian tram rail_urban rail rail_electric rail_fast ship container cable_car subway aircraft wheelchair scooter drone" speed="13.89" length="0.10" shape="189.32,894.47 189.32,894.47"/>
        <lane id=":10572662434_0_1" index="1" disallow="pedestrian tram rail_urban rail rail_electric rail_fast ship container cable_car subway aircraft wheelchair scooter drone" speed="13.89" length="0.10" shape="187.50,891.83 187.50,891.83"/>
    </edge>
    <edge id=":10572681945_0" function="internal">
        <lane id=":10572681945_0_0" index="0" disallow="tram rail_urban rail rail_electric rail_fast ship container cable_car subway aircraft wheelchair scooter drone" speed="13.89" length="0.30" shape="352.34,717.57 352.64,717.53"/>
        <lane id=":10572681945_0_1" index="1" disallow="tram rail_urban rail rail_electric rail_fast ship container cable_car subway aircraft wheelchair scooter drone" speed="13.89" length="0.30" shape="352.80,720.74 353.09,720.69"/>
        <lane id=":10572681945_0_2" index="2" disallow="tram rail_urban rail rail_electric rail_fast ship container cable_car subway aircraft wheelchair scooter drone" speed="13.89" length="0.30" shape="353.25,723.91 353.55,723.86"/>
        <lane id=":10572681945_0_3" index="3" disallow="tram rail_urban rail rail_electric rail_fast ship container cable_car subway aircraft wheelchair scooter drone" speed="13.89" length="0.30" shape="353.70,727.07 354.00,727.03"/>
    </edge>
    <edge id=":10572681946_0" function="internal">
        <lane id=":10572681946_0_0" index="0" disallow="tram rail_urban rail rail_electric rail_fast ship container cable_car subway aircraft wheelchair scooter drone" speed="13.89" length="0.49" shape="530.58,750.15 530.55,750.19 530.53,750.21 530.51,750.24 530.48,750.28"/>
        <lane id=":10572681946_0_1" index="1" disallow="tram rail_urban rail rail_electric rail_fast ship container cable_car subway aircraft wheelchair scooter drone" speed="13.89" length="0.49" shape="528.16,748.05 528.07,748.16 528.00,748.24 527.94,748.32 527.86,748.44"/>
        <lane id=":10572681946_0_2" index="2" disallow="tram rail_urban rail rail_electric rail_fast ship container cable_car subway aircraft wheelchair scooter drone" speed="13.89" length="0.49" shape="525.74,745.96 525.59,746.14 525.48,746.27 525.38,746.40 525.24,746.60"/>
    </edge>
    <edge id=":10572681947_0" function="internal">
        <lane id=":10572681947_0_0" index="0" disallow="pedestrian tram rail_urban rail rail_electric rail_fast ship container cable_car subway aircraft wheelchair scooter drone" speed="13.89" length="0.35" shape="480.10,819.35 480.32,819.15"/>
        <lane id=":10572681947_0_1" index="1" disallow="pedestrian tram rail_urban rail rail_electric rail_fast ship container cable_car subway aircraft wheelchair scooter drone" speed="13.89" length="0.35" shape="478.01,816.93 478.27,816.69"/>
        <lane id=":10572681947_0_2" index="2" disallow="pedestrian tram rail_urban rail rail_electric rail_fast ship container cable_car subway aircraft wheelchair scooter drone" speed="13.89" length="0.35" shape="475.92,814.50 476.21,814.24"/>
    </edge>
    <edge id=":10572681948_0" function="internal">
        <lane id=":10572681948_0_0" index="0" disallow="pedestrian tram rail_urban rail rail_electric rail_fast ship container cable_car subway aircraft wheelchair scooter drone" speed="13.89" length="0.34" shape="488.95,823.94 489.07,823.61"/>
        <lane id=":10572681948_0_1" index="1" disallow="pedestrian tram rail_urban rail rail_electric rail_fast ship container cable_car subway aircraft wheelchair scooter drone" speed="13.89" length="0.34" shape="485.93,822.90 486.04,822.57"/>
        <lane id=":10572681948_0_2" index="2" disallow="pedestrian tram rail_urban rail rail_electric rail_fast ship container cable_car subway aircraft wheelchair scooter drone" speed="13.89" length="0.34" shape="482.90,821.85 483.01,821.53"/>
    </edge>
    <edge id=":10572681949_0" function="internal">
        <lane id=":10572681949_0_0" index="0" disallow="pedestrian tram rail_urban rail rail_electric rail_fast ship container cable_car subway aircraft wheelchair scooter drone" speed="13.89" length="0.30" shape="392.19,841.59 391.89,841.56"/>
        <lane id=":10572681949_0_1" index="1" disallow="pedestrian tram rail_urban rail rail_electric rail_fast ship container cable_car subway aircraft wheelchair scooter drone" speed="13.89" length="0.30" shape="392.51,838.40 392.21,838.37"/>
        <lane id=":10572681949_0_2" index="2" disallow="pedestrian tram rail_urban rail rail_electric rail_fast ship container cable_car subway aircraft wheelchair scooter drone" speed="13.89" length="0.30" shape="392.82,835.22 392.54,835.19"/>
    </edge>
    <edge id=":10572681950_0" function="internal">
        <lane id=":10572681950_0_0" index="0" disallow="tram rail_urban rail rail_electric rail_fast ship container cable_car subway aircraft wheelchair scooter drone" speed="13.89" length="0.30" shape="377.89,858.92 377.74,858.63"/>
        <lane id=":10572681950_0_1" index="1" disallow="tram rail_urban rail rail_electric rail_fast ship container cable_car subway aircraft wheelchair scooter drone" speed="13.89" length="0.30" shape="380.74,857.45 380.60,857.18"/>
        <lane id=":10572681950_0_2" index="2" disallow="tram rail_urban rail rail_electric rail_fast ship container cable_car subway aircraft wheelchair scooter drone" speed="13.89" length="0.30" shape="383.58,855.99 383.45,855.73"/>
        <lane id=":10572681950_0_3" index="3" disallow="tram rail_urban rail rail_electric rail_fast ship container cable_car subway aircraft wheelchair scooter drone" speed="13.89" length="0.30" shape="386.43,854.53 386.30,854.28"/>
    </edge>
    <edge id=":10572681951_0" function="internal">
        <lane id=":10572681951_0_0" index="0" disallow="pedestrian tram rail_urban rail rail_electric rail_fast ship container cable_car subway aircraft wheelchair scooter drone" speed="13.89" length="0.42" shape="336.77,798.28 336.61,798.05"/>
        <lane id=":10572681951_0_1" index="1" disallow="pedestrian tram rail_urban rail rail_electric rail_fast ship container cable_car subway aircraft wheelchair scooter drone" speed="13.89" length="0.42" shape="339.38,796.42 339.16,796.12"/>
        <lane id=":10572681951_0_2" index="2" disallow="pedestrian tram rail_urban rail rail_electric rail_fast ship container cable_car subway aircraft wheelchair scooter drone" speed="13.89" length="0.42" shape="341.98,794.56 341.71,794.19"/>
        <lane id=":10572681951_0_3" index="3" disallow="pedestrian tram rail_urban rail rail_electric rail_fast ship container cable_car subway aircraft wheelchair scooter drone" speed="13.89" length="0.42" shape="344.59,792.70 344.26,792.25"/>
    </edge>
    <edge id=":10572681952_0" function="internal">
        <lane id=":10572681952_0_0" index="0" disallow="pedestrian tram rail_urban rail rail_electric rail_fast ship container cable_car subway aircraft wheelchair scooter drone" speed="13.89" length="0.26" shape="299.88,785.91 300.03,785.80"/>