<?xml version="1.0" encoding="UTF-8"?>

<!-- generated on 2025-11-24 13:09:06 by Eclipse SUMO netedit Version 1.24.0
-->

<routes xmlns:xsi="http://www.w3.org/2001/XMLSchema-instance" xsi:noNamespaceSchemaLocation="http://sumo.dlr.de/xsd/routes_file.xsd">

</routes>
