<?xml version="1.0" encoding="UTF-8"?>
<configuration>
    <input>
        <net-file value="frankfurt_kfz.net.xml"/>

        <additional-files value="frankfurt_routes_only.xml"/>

    </input>

    <time>
        <begin value="0"/>
        </time>
</configuration>
