<?xml version="1.0" encoding="UTF-8"?>

<!-- generated on 2025-12-12T12:59:26.364346+01:00 by Eclipse SUMO netedit v1_24_0+1845-01be9a8093d
-->

<routes xmlns:xsi="http://www.w3.org/2001/XMLSchema-instance" xsi:noNamespaceSchemaLocation="http://sumo.dlr.de/xsd/routes_file.xsd">
    <!-- Routes -->
    <route id="r_0" edges="1390125575 301727555#0 301727555#1 138949278#0 138949278#1 1126499604 266632221 35742415#0 35742415#1 35742415#2 35742415#3 4514392#0 4514392#1 301727524 301727526#0 301727526#1 301727526#2 1126499606 97375923 1126499607#0 1126499607#1 1414980242 301082101#0 301082101#1 301082101#2 37251200#0 37251200#1 37251200#2 139017252#0 139017252#1 1414381766 301592609 47986354#0 47986354#1 47986354#2 47986354#3 47986354#4 42368101#0 42368101#1 42368101#2 42367703#0 42367703#1 42367703#2 42367703#3 243690754 97375949 302654042 829955751 139133558#0 139133558#1 1071730881"/>
    <route id="r_1" edges="1390125575 301727555#0 301727555#1 138949278#0 138949278#1 1126499604 266632221 35742415#0 35742415#1 35742415#2 35742415#3 4514392#0 4514392#1 301727524 301727526#0 301727526#1 301727526#2 1126499606 301727525#0 301727525#1 301727525#2 126392269#0 126392269#1 302973549 302973548#0 302973548#1 126392270#0 126392270#1 1126499607#1 1414980242 301082101#0 301082101#1 301082101#2 4839692#0 4839692#1 4839692#2 4839692#3 30283994#0 30283994#1 30283994#2 30283994#3 139017253#0 139017253#1 97379345#0 97379345#1 97379345#2 97379341#0 97379341#1 1266784101 4223177 4850675 1264818920 1218235524 1266783725 1266783724 4858214 1218235521 1218235523 1385062192 4223181#0 4223181#1 1385062191 46095473 38934262 137730392#0 137730392#1 137730392#2"/>
    <route id="r_10" edges="47996539 29065489 755967409 28494147 208500591#0 208500591#1 148754589 266364703#0 266364703#1 266364703#2 4850964#0 4850964#1 266364735 148754588 266449028 266449027 926324813 229808013 229808015 4514491 229808012#0 229808012#1 229808012#2 49967814#0 49967814#1 49967814#2 49967814#3 49967814#4 49967814#5 49967814#6 1269148393 49967704 97381228#0 97381228#1 97381230 42368103#0 42368103#1 42368103#2 440834742 42368104#0 42368104#1 42368104#2 42368104#3 12856650#0 12856650#1 301592619#0 225400720#0 225400720#1 225400720#2 -225400721 -1177268687 -999339429#2 -999339429#1 -999339429#0 -4500119#1 -4500119#0 25684649#0 25684649#1 25684649#2 25684649#3 1146816211 139017252#0 139017252#1 1414381766 301592609 1056870522#0 1056870522#1 1056870522#2 1056870522#3 1056870522#4 139110194#0 139110194#1 139110194#2 42368106#0 42368106#1 42368106#2 45578479 569210044#0 569210044#1 569210044#2 5072844#0 5072844#1 5072844#2"/>
    <route id="r_11" edges="1085833218#0 1085833218#1 1085833218#2 1408862490#0 1408862490#1 1408862490#2 1408873140 1408862615 1053272469#0 1053272469#1 1408876770#0 1408876770#1 1408877832 1408878362#0 1408878362#1 1409122771#0 1409122771#1 1409122789 1409211165 1053043149#0 1053043149#1 1053043149#2 1333172001#0 1333172001#1 24527732#0 24527732#1 503322104#0 503322104#1 502484458#0 502484458#1 1293506707 24527721#0 24527721#1 49501589 1413438177#0 1413438177#1 24527718 1413438179 1413438180 1413438181 1413438178#0 1413438178#1 -4722379#4 -4722379#3 -4722379#2 -4722379#1 -4722379#0 1098150881 4793112 495766634 495766636#0 495766636#1 495766635 495766637#0 495766637#1 495766637#2 495766637#3 472503795 1413302807 4793114#0 4793114#1 142685257#0 142685257#1 142685257#2 148754587#0 148754587#1 148754587#2 148754587#3 148754587#4 441319285#0 441319285#1 441319285#2 441319287#0 441319287#1 4928479#0 4928479#1 4928479#2 4928479#3 4928479#4 4928479#5 4928479#6 441319296"/>
    <route id="r_12" edges="1072426285 466931799#0 466931799#1 1019958846 1019957665 1019957666#0 1019957666#1 1019957666#2 4850920#0 4850920#1 4850920#2 139188142 5073183 1198022891#0 1198022891#1 1198022891#2 1198022891#3 45578479 569210044#0 569210044#1 569210044#2 569210044#3 569210044#4 139187359#0 569210043#0 569210043#1 569210043#2 137733170#0 137733170#1 137733170#2 137733170#3 137733170#4 137733170#5 137733169 137733171 1056610259#0 1056610259#1 159016933 441319289 49587760 758932762#0 758932762#1 758932762#2 4850965 148754587#0 148754587#1 148754587#2 148754587#3 148754587#4 441319285#0 441319285#1 441319285#2 247500042#0 247500042#1 247500042#2 247500042#3 -26825417#10 -26825417#9 -26825417#8 -26825417#7 -26825417#6 -26825417#5 -26825417#4 -26825417#3 -26825417#2 -26825417#1 -26825417#0"/>
    <route id="r_13" edges="301592614#0 301592614#1 364524582#0 364524582#1 364524582#2 1162044052 302980605#0 302980605#1 302980605#2 302980605#3 1177269596#0 1177269596#1 1177269596#2 1177269596#3 1177269596#4 13988083#0 13988083#1 13988083#2 13988083#3 302980603 301082100#0 301082100#1 301082100#2 301082100#3 950169571 302980586 302980588#0 302980588#1 302980588#2 301082096#0 301082096#1 301727548 301082104 301082099 300629725 301082096#0 300629726#0 300629726#1 302973541 8106413#0 8106413#1 301727548 300629727#0 300629727#1 300629727#2 1392073823 300629728#0 300629728#1 300629728#2 300629728#3 1391094286#0 1391094286#1 1391094286#2 1391094286#3 301082103 1033986546#0 1033986546#1 1033986546#2 322079024"/>
    <route id="r_14" edges="132637908 942258291 1049559997 1033986551#0 1033986551#1 1033986551#2 1033986551#3 1391094284 27587117 1082077195 283324392 -300629728#3 -300629728#2 -300629728#1 -300629728#0 1392073822 8045605#0 8045605#1 301082099 300629725 301082096#0 301082096#1 301727548 301082104 301082099 950169075#0 950169075#1 300629724#0 300629724#1 302980587#0 302980587#1 302973540 -302980603 -13988083#3 -13988083#2 -13988083#1 -13988083#0 -1177269596#4 -1177269596#3 -1177269596#2 -1177269596#1 -1177269596#0 -302980605#3 -302980605#2 -302980605#1 -302980605#0 -1162044052 -364524582#2 -364524582#1 -364524582#0 -301592614#1 -301592614#0"/>
    <route id="r_15" edges="334335369#0 334335369#1 334335369#2 334335369#3 334335369#4 334335369#5 48555168#0 48555168#1 48555168#2 48555168#3 48555168#4 48555168#5 48555168#6 138945457#0 138945457#1 266632202#0 266632202#1 30284189#0 30284189#1 301727535#0 301727535#1 301727535#2 97379344 1033814526#0 1033814526#1 1033814526#2 35742415#0 35742415#1 35742415#2 35742415#3 30284195#0 30284195#1 30284195#2 30284195#3 30284195#4 138945455#0 138945455#1 138945455#2 34186411 4424309#0 4424309#1 266632198#0 266632198#1 266632198#2 266632198#3 266632198#4 45352938#0 45352938#1 45352938#2 45352938#3 4223103#0 4223103#1 874778294 138929036 301727540 301727541#0 301727541#1 137727982"/>
    <route id="r_16" edges="47996539 29065489 755967409 28494147 208500591#0 208500591#1 148754589 266364703#0 266364703#1 266364703#2 4850964#0 4850964#1 266364735 148754588 266449028 4850672#0 4850672#1 1266807313#0 1266807313#1 1266807313#2 4858226#0 4858226#1 4858185#4 4858185#5 4858185#0 4858185#1 4858229#0 4858229#1 4858229#2 1456551108 39503238 4858215 4858213#0 4858213#1 4858213#2 4858185#1 4858229#0 4858229#1 4858229#2 1456551108 4514509 139187607#0 139187607#1 139187607#2 1269148393 49967704 97381228#0 97381228#1 97381230 42368103#0 42368103#1 42368103#2 440834742 42368104#0 42368104#1 42368104#2 42368104#3 12856650#0 12856650#1 301592619#0 301592619#1 301592619#2 301592619#3 117912031#0 117912031#1 9824020#0 9824020#1 9824020#2 9824020#3 4886407#0 4886407#1 4886407#2 4886407#3 25684649#0 25684649#1 25684649#2 25684649#3 1146816211 301727534#0 301727534#1 301727534#2 30283994#0 30283994#1 30283994#2 30283994#3 30284004#0 30284004#1 30284004#2 1079644264 1079644261 34249958#0 138954833#0 138954833#1 301727539#0 301727539#1 301727539#2 136551174#0 136551174#1 301727558#0 301727558#1 301727557 142685258#0 142685258#1 301727559 48555168#5 48555168#6 138945457#0 138945457#1 266632202#0 266632202#1 30284189#0 30284189#1 301727535#0 301727535#1 301727535#2 97379344 1033814526#0 1033814526#1 1033814526#2 35742415#0 35742415#1 35742415#2 35742415#3 30284195#0 30284195#1 30284195#2 30284195#3 30284195#4 138945455#0 138945455#1 138945455#2 34186411 34186412#0 34186412#1 138945456#0 138945456#1 1033814524 30284189#0 30284189#1 4223104#0 4223104#1 4223104#2 4223104#3"/>
    <route id="r_2" edges="47996539 29065489 755967409 28494147 208500591#0 208500591#1 148754589 266364703#0 266364703#1 266364703#2 4850964#0 4850964#1 266364735 148754588 266449028 266449027 926324813 229808013 229808015 4514491 229808012#0 229808012#1 229808012#2 49967814#0 49967814#1 49967814#2 49967814#3 49967814#4 49967814#5 49967814#6 1269148393 49967704 1414980234 40739235#0 40739235#1 301592628#0 301592628#1 64942958#0 64942958#1 135811281#0 135811281#1 135811281#2 135811281#3 30284004#0 30284004#1 30284004#2 1079644264 1079644261 34249958#0 34249958#1 472907539#0 472907539#1 266632162 34186411 4424309#0 4424309#1 266632198#0 266632198#1 266632198#2 266632198#3 266632198#4 45352938#0 45352938#1 45352938#2 45352938#3 1210506418#0 1210506418#1 1210506418#2 1210506419 48555167#0 48555167#1 48555167#2 48555167#3"/>
    <route id="r_3" edges="845507110 1420731271 941417670#0 941417670#1 941417670#2 24535781#0 24535781#1 24535781#2 24527659#0 24527659#1 24527659#2 24527660#0 24527660#1 24527660#2 24527660#3 24527662#0 24527662#1 24527662#2 1098150881 4793112 495766634 495766636#0 495766636#1 495766635 495766637#0 495766637#1 495766637#2 495766637#3 472503795 1413302807 4793114#0 4793114#1 489224054 758932761#0 758932761#1 148754584 922863981#0 922863981#1 1409214180 1409214324 1409214504#0 1409214504#1 1409223008 4223109#0 4223109#1 4223109#2 1409223887 1409225036 1409225174 139189235 139189236#0 139189236#1 472503788#0 472503788#1 472503788#2 1237321922#0 1237321922#1 139189234#0 139189234#1 139189234#2 1019958846 1019957665 4514391 139106355#0 139106355#1 302654040#0 302654040#1 302654040#2 42367702 42368102#0 42368102#1 64942958#0 64942958#1 135811281#0 135811281#1 135811281#2 135811281#3 30284004#0 30284004#1 30284004#2 1079644264 1079644261 34249958#0 34249958#1 472907539#0 472907539#1 266632162 34186411 34186412#0 34186412#1 138945456#0 138945456#1 1033814524 30284189#0 30284189#1 301727535#0 301727535#1 301727535#2 174959072 1033814525 4223164 1079644260 266632207"/>
    <route id="r_4" edges="26825417#0 26825417#1 26825417#2 26825417#3 26825417#4 26825417#5 26825417#6 26825417#7 26825417#8 26825417#9 26825417#10 247500044#0 247500044#1 247500044#2 247500044#3 1080510592#4 1080510595#0 1080510595#1 4850461#0 4850461#1"/>
    <route id="r_5" edges="247500048#0 247500048#1 247500048#2 247500048#3 24527785 1029849723 1017153775 472503801#0 472503801#1 148754586#0 148754586#1 148754586#2 148754586#3 1021708443#0 1021708443#1 1021708443#2 472503797#0 472503797#1 472503796#0 472503796#1 472503796#2 30194665#0 30194665#1 -441529298#2 -441529298#1 -441529298#0 441529298#0 441529298#1 441529298#2 30194665#2 756909463 5072869 49967561#0 49967561#1 49967561#2 495766639#0 495766639#1 24535786#0 24535786#1 24527662#0 24527662#1 24527662#2 4722379#0 4722379#1 4722379#2 4722379#3 4722379#4 31281046 5069788"/>
    <route id="r_6" edges="266364696#0 266364696#1 266364696#2 266364696#3 1413458023#0 1413458023#1 1278501566 382344626#0 382344626#1 382344626#2 382344626#3 382344626#4 229811475#0 229811475#1 302980585 29065483#0 29065483#1 142692021 28494147 208500591#0 208500591#1 148754589 266364703#0 266364703#1 266364703#2 4850964#0 4850964#1 266364735 88196096 266449029 926324814 926324818 376693856 384870499#0 384870499#1 266449020#0 266449020#1 229811477 301592615 5072869 49967561#0 49967561#1 49967561#2 495766639#0 495766639#1 24535786#0 24535786#1 24527662#0 24527662#1 24527662#2 1098150881 4793112 495766634 495766636#0 495766636#1 5072970"/>
    <route id="r_7" edges="-27617251#1 -27617251#0 -1087706713 -854709915 -854710023 -1087706712 -87289386#2 -87289386#1 -87289386#0 -854710022#1 -854710022#0 -854710073 -854710072#1 -854710072#0 -30711442 4858228#0 4858228#1 1349527874 870831482 870808699 1313447932 39020364 243662779#0 243662779#1 243662779#2 243662779#3 -1087706711 -954467395#1 -954467395#0 -229811476#3 -229811476#2 -229811476#1 -229811476#0 -38196443 80390543 96230484 502064955#0 502064955#1 266364708#0 266364708#1 4850964#0 4850964#1 266364735 88196096 266449029 926324814 926324818 376693856 384870499#0 384870499#1 266449020#0 266449020#1 229811477 301592615 5072869 49967561#0 49967561#1 49967561#2 495766639#0 495766639#1 24535786#0 24535786#1 24527662#0 24527662#1 24527662#2 1098150881 4793112 495766634 495766636#0 495766636#1 495766635 495766637#0 495766637#1 495766637#2 495766637#3 30194665#0 30194665#1 -441529298#2 -441529298#1 -441529298#0 441529298#0 441529298#1 441529298#2 30194665#2 756909463 1382004725 1382023430 1382023429 266449023#0 266449023#1 266449023#2 1381954873 965319934#0 965319934#1 1295271731 4218495#0 4218495#1 4218495#2 4218495#3"/>
    <route id="r_8" edges="4223113#0 4223113#1 4223113#2 856026311 137730395 52289654 52289653#0 52289653#1 52289653#2 4223132#7 4223132#0 4223132#1 4223132#2 4223132#3 4223132#4 4223132#5 4223132#6 4223132#7 4223132#0 4223132#1 4223132#2 4223132#3 4223132#4 659875050#0 659875050#1 4223177 4850675 1264818920 1218235524 1266783725 1266783724 4858214 1218235521 1218235523 1385062192 4223181#0 4223181#1 1385062191 46095473 4854083 -856026311 238448805 24246445#1 4223119#0 4223119#1 4223119#2 301727541#0 301727541#1 137727982"/>
    <route id="r_9" edges="-697836478 -4702471 301592617#0 301592617#1 301592617#2 301592617#3 101325123#0 101325123#1 101325123#2 101325123#3 139015291#0 139015291#1 139015291#2 42368105#0 42368105#1 42368105#2 42368105#3 42368105#4 42368106#0 42368106#1 42368106#2 45578479 569210044#0 569210044#1 569210044#2 569210044#3 569210044#4 139187359#0 139187359#1 139187359#2 229811478 229811479 301592618 4850967 229808016#0 229808016#1 229808014#0 229808014#1 143559280 376693859 926324819 266449030#0 266449030#1 266364733#0 266364733#1 238656650 991504197#0 991504197#1 4863009#0 4863009#1 4863009#2 4863009#3 755967404#0 755967404#1 44850270#0 44850270#1 -47996539"/>
</routes>
