<?xml version="1.0" encoding="UTF-8"?>

<!-- generated on 2025-12-10 15:13:00.271397 by Eclipse SUMO randomTrips.py UNKNOWN
<configuration>
    <net-file value="frankfurt_kfz.net.xml"/>
    <output-trip-file value="frankfurt.trips.xml"/>
    <route-file value="frankfurt.rou.xml"/>
    <min-distance value="1000.0"/>
    <flows value="1000"/>
</configuration>
-->

<!-- generated on 2025-12-10T15:12:59.974749+01:00 by Eclipse SUMO duarouter v1_24_0+1845-01be9a8093d
<duarouterConfiguration xmlns:xsi="http://www.w3.org/2001/XMLSchema-instance" xsi:noNamespaceSchemaLocation="http://sumo.dlr.de/xsd/duarouterConfiguration.xsd">

    <input>
        <net-file value="frankfurt_kfz.net.xml"/>
        <route-files value="frankfurt.trips.xml"/>
    </input>

    <output>
        <output-file value="frankfurt.rou.xml"/>
        <alternatives-output value="NUL"/>
    </output>

    <processing>
        <keep-flows value="true"/>
    </processing>

    <time>
        <begin value="0"/>
        <end value="3600.0"/>
    </time>

    <report>
        <no-warnings value="true"/>
        <ignore-errors value="true"/>
        <no-step-log value="true"/>
    </report>

</duarouterConfiguration>
-->

<routes xmlns:xsi="http://www.w3.org/2001/XMLSchema-instance" xsi:noNamespaceSchemaLocation="http://sumo.dlr.de/xsd/routes_file.xsd">
    <flow id="0" begin="0.00" end="3600.00" period="1000">
        <route edges="5072873#3 1295271731 4218495#0 174636150 1080858512 -73025987 1420731271 941417670#0 941417670#1 941417670#2 24535781#0 24535781#1 24535781#2 24527659#0 24527659#1 24527659#2 24527660#0 24527660#1 24527660#2 24527660#3 24527662#0 24527662#1 24527662#2 1098150881 4793112 495766634 495766636#0 495766636#1 495766635 495766637#0 495766637#1 495766637#2 495766637#3 472503795 1413302807 4793114#0 4793114#1 489224054 758932761#0 758932761#1 148754584 922863981#0 922863981#1 1409214180 1409214324 1409214504#0 1409214504#1 1409223008 4223109#0 4223109#1 4223109#2 1409223887 1409225036 1409225174 139189235 139189236#0 139189236#1 472503788#0 472503788#1 472503788#2 1237321922#0 1237321922#1 139189234#0 139189234#1 139189234#2 1019958846 1019957665 4514391 139106355#0 139106355#1 302654040#0 302654040#1 302654040#2 42367702 42368102#0 42368102#1 64942958#0 64942958#1 135811281#0 135811281#1 135811281#2 135811281#3 30284004#0 30284004#1 30284004#2 1079644264 1079644261 34249958#0 34249958#1 472907539#0 472907539#1 266632162 34186411 34186412#0 34186412#1 138945456#0 138945456#1 1033814524 30284189#0 30284189#1 301727535#0 301727535#1 301727535#2 97379344 1033814526#0 1033814526#1 1033814526#2 35742415#0 35742415#1 35742415#2 35742415#3 4514392#0 4514392#1 301727524 301727526#0 301727526#1 301727526#2 1126499606 301727525#0 301727525#1 301727525#2 126392269#0 126392269#1 302973547#0 302973547#1 302973547#2 -302980603 -13988083#3 -13988083#2 -13988083#1 -13988083#0 -1177269596#4 -1177269596#3 -1177269596#2 -1177269596#1 -1177269596#0 -302980605#3 -302980605#2 -302980605#1 -302980605#0 -1162044052 -364524582#2 -364524582#1 -364524582#0"/>
    </flow>
    <flow id="1" begin="0.00" end="3600.00" period="1000">
        <route edges="1413438181 1413438178#0 1413438178#1 -4722379#4 -4722379#3 -4722379#2 -4722379#1 -4722379#0 1098150881 4793112 495766634 495766636#0 495766636#1 495766635 495766637#0 495766637#1 495766637#2 495766637#3 472503795 1413302807 4793114#0 4793114#1 489224054 758932761#0 758932761#1 148754584 922863981#0 922863981#1 1409214180 1409214324 1409214504#0 1409214504#1 1409223008 4223109#0 4223109#1 4223109#2 1409223887 1409225036 1409225174 139189235 139189236#0 139189236#1 472503788#0 472503788#1 472503788#2 1237321922#0 1237321922#1 139189234#0 139189234#1 139189234#2 1019958846 1019957665 4514391 139106355#0 139106355#1 302654040#0 302654040#1 302654040#2 42367702 42368102#0 42368102#1 64942958#0 64942958#1 135811281#0 135811281#1 135811281#2 135811281#3 30284004#0 30284004#1 30284004#2 1079644264 1079644261 34249958#0 34249958#1 472907539#0 472907539#1 266632162 34186411 34186412#0 34186412#1 138945456#0 138945456#1 1033814524 30284189#0 30284189#1 301727535#0 301727535#1 301727535#2 97379344 1033814526#0 1033814526#1 1033814526#2 35742415#0 35742415#1 35742415#2 35742415#3 4514392#0 4514392#1 301727524 301727526#0 301727526#1 301727526#2 1126499606 301727525#0 301727525#1 301727525#2 126392269#0 126392269#1 302973547#0 302973547#1 302973547#2 -302980603 -13988083#3 -13988083#2 -13988083#1 -13988083#0"/>
    </flow>
    <flow id="10" begin="0.00" end="3600.00" period="1000">
        <route edges="26825417#4 139189231#0 139189231#1 139189231#2 -1053272469#1 -1053272469#0 -1408862615 -1408873140 -1408862490#2 -1408862490#1 -1408862490#0 1085833217#0 1085833217#1 1085833217#2 1053043150 1409241390 363496586#0 363496586#1 363496586#2 1237321922#0 1237321922#1 139189234#0 139189234#1 139189234#2 1019958846 1019957665 4514391 139106355#0 139106355#1 302654040#0 302654040#1 302654040#2 42367702 42368102#0 42368102#1 64942958#0 64942958#1 135811281#0 135811281#1 135811281#2 135811281#3 30284004#0 30284004#1 30284004#2 1079644264 1079644261 34249958#0 34249958#1 472907539#0 472907539#1 266632162 34186411 34186412#0 34186412#1 138945456#0 138945456#1 1033814524 30284189#0 30284189#1 301727535#0 301727535#1 301727535#2 97379344 1033814526#0 1033814526#1 1033814526#2 35742415#0 35742415#1 35742415#2 35742415#3 4514392#0 4514392#1 301727524 301727526#0 301727526#1 301727526#2 1126499606 301727525#0 301727525#1 301727525#2 126392269#0 126392269#1 302973549 302973548#0 302973548#1 126392270#0"/>
    </flow>
    <flow id="100" begin="0.00" end="3600.00" period="1000">
        <route edges="4863009#0 4863009#1 4863009#2 4863009#3 755967404#0 755967404#1 44850270#0 44850270#1 -47996539 47996539 29065489 755967409 28494147 208500591#0 208500591#1 148754589 266364703#0 266364703#1 266364703#2 4850964#0 4850964#1 266364735 148754588 266449028 266449027 926324813 229808013 229808015 4514491 229808012#0 229808012#1 229808012#2 49967814#0 49967814#1 49967814#2 49967814#3 49967814#4 49967814#5 49967814#6 1269148393 49967704 1414980234 40739235#0 40739235#1 301592628#0 301592628#1 64942958#0 64942958#1 135811281#0 135811281#1 135811281#2 135811281#3 30284004#0 30284004#1 30284004#2 1079644264 1079644261 34249958#0 34249958#1 472907539#0 472907539#1 266632162 34186411 34186412#0 34186412#1 138945456#0 138945456#1 1033814524 30284189#0 30284189#1 301727535#0 301727535#1 301727535#2 97379344 1033814526#0 1033814526#1 1033814526#2 35742415#0 35742415#1 35742415#2 35742415#3 4514392#0 4514392#1 301727524 301727526#0 301727526#1 301727526#2 1126499606 301727525#0 301727525#1 301727525#2 126392269#0 126392269#1 302973547#0 302973547#1 302973547#2 301082100#0 301082100#1 301082100#2 301082100#3 950169571 302980586 302980588#0 302980588#1 302980588#2 301082096#0 301082096#1 301727548 300629727#0 300629727#1 300629727#2 1392073823 300629728#0 300629728#1 300629728#2 300629728#3"/>
    </flow>
    <flow id="101" begin="0.00" end="3600.00" period="1000">
        <route edges="87289386#0 87289386#1 87289386#2 1087706712 854710023 -854710023 -1087706712 -87289386#2 -87289386#1 -87289386#0 -854710022#1 -854710022#0 -854710073 -854710072#1 -854710072#0 -30711442 -854710130 -991504190#1 -991504190#0 -854710129 -30711441 -1087706711 -954467395#1 -954467395#0 -229811476#3 -229811476#2 -229811476#1 -229811476#0 -38196443 80390543 96230484 502064955#0 502064955#1 266364708#0 266364708#1 4850964#0 4850964#1 266364735 148754588 266449028 266449027 926324813 229808013 229808015 4514491 229808012#0 229808012#1 229808012#2 49967814#0 49967814#1 49967814#2 49967814#3 49967814#4 49967814#5 49967814#6 1269148393 49967704 97381228#0 97381228#1 97381230 42368103#0 42368103#1 42368103#2 440834742 42368104#0 42368104#1 42368104#2 42368104#3 12856650#0 12856650#1 301592619#0 225400720#0 225400720#1 225400720#2 -225400721 -1177268687 -999339429#2 -999339429#1 -999339429#0 -4500119#1 -4500119#0 4500119#0 4500119#1 999339429#0 999339429#1 999339429#2"/>
    </flow>
    <flow id="102" begin="0.00" end="3600.00" period="1000">
        <route edges="229808011 384870499#0 384870499#1 926324811 4722376 926324812 926324817 926324815 926324813 229808013 229808015 4514491 229808012#0 229808012#1 229808012#2 49967814#0 49967814#1 49967814#2 49967814#3 49967814#4 49967814#5 49967814#6 1269148393 49967704 1414980234 40739235#0 40739235#1 301592628#0 301592628#1 64942958#0 64942958#1 135811281#0 135811281#1 135811281#2 135811281#3 30284004#0 30284004#1 30284004#2 1079644264 1079644261 34249958#0 34249958#1 472907539#0 472907539#1 266632162 34186411 4424309#0 4424309#1 266632198#0 266632198#1 266632198#2 266632198#3 266632198#4 45352938#0 45352938#1 45352938#2 45352938#3 1210506418#0 1210506418#1 1210506418#2 1210506419 48555167#0 13984339 334335369#3 334335369#4"/>
    </flow>
    <flow id="103" begin="0.00" end="3600.00" period="1000">
        <route edges="364524582#2 301592613#0 301592613#1 301592613#2 301592613#3 4886407#0 4886407#1 4886407#2 4886407#3 25684649#0 25684649#1 25684649#2 25684649#3 1146816211 139017252#0 139017252#1 1414381766 301592609 1056870522#0 1056870522#1 1056870522#2 1056870522#3 1056870522#4 139110194#0 139110194#1 139110194#2 42368106#0 42368106#1 42368106#2 45578479 569210044#0 569210044#1 569210044#2 569210044#3 569210044#4 139187359#0 139187359#1 139187359#2 229811478 229811479 301592618 4850967 229808016#0 229808016#1 229808011 384870499#0 384870499#1 266449020#0 266449020#1 229811477 301592615 5072869 49967561#0 49967561#1 49967561#2 495766639#0 495766639#1 24535786#0 24535786#1 24527662#0 24527662#1 24527662#2 1098150881 4793112 495766634 495766636#0 495766636#1"/>
    </flow>
    <flow id="104" begin="0.00" end="3600.00" period="1000">
        <route edges="1390125575 301727555#0 301727555#1 138949278#0 138949278#1 1126499604 266632221 35742415#0 35742415#1 35742415#2 35742415#3 4514392#0 4514392#1 301727524 301727526#0 301727526#1 301727526#2 1126499606 97375923 1126499607#0 1126499607#1 1414980242 301082101#0 301082101#1 301082101#2 37251200#0 37251200#1 37251200#2 139017252#0 139017252#1 1414381766 301592609 1056870522#0 1056870522#1 1056870522#2 1056870522#3 1056870522#4 139110194#0 139110194#1 139110194#2 42368106#0 42368106#1 42368106#2 45578479 569210044#0 569210044#1 569210044#2 569210044#3 569210044#4 139187359#0 139187359#1 139187359#2 229811478 151393376#0 151393376#1 151393377 441319290 1056610260 159016933 441319289 49587760 758932762#0 758932762#1 758932762#2 922863981#0 922863981#1 1409214180 1409214324 1409214504#0 1409214504#1 1409223008 4223109#0"/>
    </flow>
    <flow id="105" begin="0.00" end="3600.00" period="1000">
        <route edges="138945454#2 138945454#3 -868276196#0 -4886408#3 -4886408#2 -4886408#1 -4886408#0 301727538#0 301727538#1 301727538#2 301727538#3 301727538#4 301727538#5 301727538#6 301727537#0 301727537#1 301727537#2 1079660579 48555168#0 48555168#1 48555168#2 48555168#3 48555168#4 48555168#5 48555168#6 138945457#0 138945457#1 266632202#0 266632202#1 30284189#0 30284189#1 301727535#0 301727535#1 301727535#2 97379344 1033814526#0 1033814526#1 1033814526#2 35742415#0 35742415#1 35742415#2 35742415#3 4514392#0 4514392#1 301727524 301727526#0 301727526#1 301727526#2 1126499606 97375923 1126499607#0 1126499607#1 1414980242 301082101#0 301082101#1 301082101#2 37251200#0 37251200#1 37251200#2 139017252#0 139017252#1 1414381766 301592609 1056870522#0 1056870522#1 1056870522#2 1056870522#3 1056870522#4 139110194#0 139110194#1 139110194#2 42368106#0 42368106#1 42368106#2 45578479 569210044#0 569210044#1 569210044#2 569210044#3 569210044#4 139187359#0 139187359#1 139187359#2 229811478 229811479 301592618 4850967 229808016#0 229808016#1 229808014#0 229808014#1 143559280 926324812 926324818"/>
    </flow>
    <flow id="106" begin="0.00" end="3600.00" period="1000">
        <route edges="-991504190#1 -991504190#0 -854710129 -30711441 -1087706711 -954467395#1 -954467395#0 -229811476#3 -229811476#2 -229811476#1 -229811476#0 -38196443 80390543 96230484 502064955#0 502064955#1 266364708#0 266364708#1 4850964#0 4850964#1 266364735 148754588 266449028 266449027 926324813 229808013 229808015 4514491 229808012#0 229808012#1 229808012#2 49967814#0 49967814#1 49967814#2 49967814#3 49967814#4 49967814#5 49967814#6 1269148393 49967704 1414980234 40739235#0 40739235#1 301592628#0 301592628#1 64942958#0 64942958#1 135811281#0 135811281#1 135811281#2 135811281#3 30284004#0 30284004#1 30284004#2 1079644264 1079644261 34249958#0 34249958#1 472907539#0 472907539#1 266632162 34186411 34186412#0 34186412#1 138945456#0 138945456#1 1033814524 30284189#0 30284189#1 301727535#0 301727535#1 301727535#2 174959072 1033814525 4223164 1079644260 266632207"/>
    </flow>
    <flow id="107" begin="0.00" end="3600.00" period="1000">
        <route edges="174600937#0 174600937#1 174600937#2 174600936#0 174600936#1 174600936#2 174600936#3 247500055#0 247500055#1 247500055#2 472503797#0 472503797#1 472503796#0 472503796#1 472503796#2 472503795 1413302807 4793114#0 4793114#1 489224054 758932761#0 758932761#1 148754584 922863981#0 922863981#1 1409214180 1409214324 1409214504#0 1409214504#1 1409223008 4223109#0 4223109#1 4223109#2 1409223887 1409225036 1409225174 139189235 139189236#0 139189236#1 472503788#0 472503788#1 472503788#2 1237321922#0 1237321922#1 139189234#0 139189234#1 139189234#2 1019958846 1019957665 4514391 139106355#0 139106355#1 302654040#0 302654040#1 302654040#2 42367702 42368102#0 42368102#1 64942958#0 64942958#1 135811281#0 135811281#1 135811281#2 135811281#3 30284004#0 30284004#1 30284004#2 1079644264 1079644261 34249958#0 138954833#0 138954833#1 301727539#0 301727539#1 301727539#2 136551174#0 136551174#1 301727558#0 301727558#1 301727557 142685258#0 142685258#1 301727559 48555168#5 4886409 138945454#0 138945454#1 138945454#2 138945454#3 -868276196#0 -4886408#3 -4886408#2 -4886408#1 -4886408#0"/>
    </flow>
    <flow id="108" begin="0.00" end="3600.00" period="1000">
        <route edges="4858230 4514509 139187607#0 139187607#1 139187607#2 39503239 45578479 569210044#0 569210044#1 569210044#2 569210044#3 569210044#4 139187359#0 139187359#1 139187359#2 229811478 229811479 301592618 4850967 229808016#0 229808016#1 229808011 384870499#0 384870499#1 266449020#0 266449020#1 229811477 301592615 1382004725 1382023430 1382023429 266449023#0 266449023#1 266449023#2 1381954873 965319934#0 965319934#1 1295271731 4218495#0 174636150 1080858512 -73025987 1420731271 941417670#0 941417670#1 941417670#2 24535781#0 24535781#1 24535781#2 24527659#0 24527659#1 24527659#2 24527660#0"/>
    </flow>
    <flow id="109" begin="0.00" end="3600.00" period="1000">
        <route edges="42367704#1 829955754#0 829955754#1 1053264980 1053264979 1053264984 8106410 4702468#0 4702468#1 4702468#2 860204568#0 860204568#1 860204568#2 860204568#3 139015291#0 139015291#1 139015291#2 42368105#0 42368105#1 42368105#2 42368105#3 42368105#4 42368106#0 42368106#1 42368106#2 45578479 569210044#0 569210044#1 569210044#2 569210044#3 569210044#4 139187359#0 139187359#1 139187359#2 229811478 229811479 301592618 4850967 229808016#0 229808016#1 229808011 384870499#0 384870499#1 266449020#0 266449020#1 229811477 301592615 1382004725 1382023430 1382023429 266449023#0 266449023#1 266449023#2 1381954873 965319934#0 965319934#1 1295271731 4218495#0 174636150 1080858512 -73025987 1420731271 941417670#0 941417670#1 941417670#2 24535781#0 24535781#1 24535781#2"/>
    </flow>
    <flow id="11" begin="0.00" end="3600.00" period="1000">
        <route edges="301082100#1 301082100#2 301082100#3 950169571 302980586 1057175027 300629724#1 302980587#0 302980587#1 302973540 -302980603 301082095#0 301082095#1 302973548#0 302973548#1 126392270#0 126392270#1 1126499607#1 1414980242 301082101#0 301082101#1 301082101#2 37251200#0 37251200#1 37251200#2 139017252#0 139017252#1 1414381766 301592609 1056870522#0 1056870522#1 1056870522#2 1056870522#3 1056870522#4 139110194#0 139110194#1 139110194#2 42368106#0 42368106#1 42368106#2 45578479 569210044#0 569210044#1 569210044#2 569210044#3 569210044#4 139187359#0 139187359#1 139187359#2 229811478 229811479 301592618 4850967 229808016#0 229808016#1 229808011 384870499#0 384870499#1 266449020#0 266449020#1 229811477 301592615 1382004725 1382023430 1382023429 266449023#0 266449023#1 266449023#2 1381954873 965319934#0 965319934#1 1295271731 4218495#0 174636150 1080858512 -73025987 1420731271 941417670#0 -5072920 -770565577 -1394511261 -1394510973 -51344536 -1394510666#1 -1394510666#0 1394510666#0 1394510666#1 51344536"/>
    </flow>
    <flow id="110" begin="0.00" end="3600.00" period="1000">
        <route edges="266632162 34186411 34186412#0 34186412#1 138945456#0 138945456#1 1033814524 30284189#0 30284189#1 301727535#0 301727535#1 301727535#2 97379344 1033814526#0 1033814526#1 1033814526#2 35742415#0 35742415#1 35742415#2 35742415#3 4514392#0 4514392#1 301727524 301727526#0 301727526#1 301727526#2 1126499606 97375923 1126499607#0 1126499607#1 1414980242 301082101#0 301082101#1 301082101#2 37251200#0 37251200#1 37251200#2 139017252#0 139017252#1 1414381766 301592609 1056870522#0 1056870522#1 1056870522#2 1056870522#3 1056870522#4 139110194#0 139110194#1 139110194#2 42368106#0 42368106#1 42368106#2 45578479 569210044#0 569210044#1 569210044#2 569210044#3 569210044#4 139187359#0 569210043#0 569210043#1 569210043#2 301592632#0 301592632#1 301592632#2 301592632#3 4223109#2 1409223887 1409225036 1409225174 139189235 139189233#0 139189233#1 139189233#2 -1053272469#1 -1053272469#0 -1408862615 -1408873140 -1408862490#2 -1408862490#1 -1408862490#0 1408862490#0 1408862490#1 1408862490#2 1408873140"/>
    </flow>
    <flow id="111" begin="0.00" end="3600.00" period="1000">
        <route edges="50641498#2 50641498#3 50641498#4 -50641498#4 -50641498#3 -50641498#2 -50641498#1 -50641498#0 1033986551#0 1033986551#1 1033986551#2 1033986551#3 1391094284 27587117 1082077195 283324392 -300629728#3 -300629728#2 -300629728#1 -300629728#0 1392073822 8045605#0 8045605#1 301082099 950169075#0 950169075#1 300629724#0 300629724#1 302980587#0 302980587#1 302973540 -302980603 301082095#0 301082095#1 302973548#0 302973548#1 126392270#0 126392270#1 1126499607#1 1414980242 301082101#0 301082101#1 301082101#2 37251200#0 37251200#1 37251200#2 139017252#0 139017252#1 1414381766 301592609 1056870522#0 1056870522#1 1056870522#2 1056870522#3 1056870522#4 139110194#0 139110194#1 139110194#2 42368106#0 42368106#1 42368106#2 45578479 569210044#0 569210044#1 569210044#2 569210044#3 569210044#4 139187359#0 569210043#0 569210043#1 569210043#2 301592632#0 301592632#1 301592632#2 301592632#3 4223109#2 1409223887 1409225036 1409225174 139189235 139189233#0 139189233#1 139189233#2 1408876770#0 1408876770#1 1408877832 1408878362#0 1408878362#1 1409415811#0 1409415811#1 1409417171 1409417274 1409419079#0 1409419079#1 1409419079#2 1409419079#3 4968395#0"/>
    </flow>
    <flow id="112" begin="0.00" end="3600.00" period="1000">
        <route edges="24527718 1413438179 1413438180 1413438181 1413438178#0 1413438178#1 -4722379#4 -4722379#3 -4722379#2 -4722379#1 -4722379#0 1098150881 4793112 495766634 495766636#0 495766636#1 495766635 495766637#0 495766637#1 495766637#2 495766637#3 472503795 1413302807 4793114#0 4793114#1 489224054 758932761#0 758932761#1 148754584 922863981#0 922863981#1 1409214180 1409214324 1409214504#0 1409214504#1 1409223008 4223109#0 4223109#1 4223109#2 1409223887 1409225036 1409225174 139189235 139189236#0 139189236#1 472503788#0 472503788#1 472503788#2 1237321922#0 1237321922#1 139189234#0 139189234#1 139189234#2 1019958846 1019957665 4514391 139106355#0 139106355#1 302654040#0 302654040#1 302654040#2 42367702 42368102#0 42368102#1 64942958#0 64942958#1 135811281#0 135811281#1 135811281#2 135811281#3 139017253#0 139017253#1 97379345#0 97379345#1 97379345#2 1192498379 4858218#0"/>
    </flow>
    <flow id="113" begin="0.00" end="3600.00" period="1000">
        <route edges="1333681393#0 1333681393#1 174600936#0 174600936#1 174600936#2 174600936#3 247500055#0 247500055#1 247500055#2 472503797#0 472503797#1 472503796#0 472503796#1 472503796#2 30194665#0 30194665#1 30194665#2 756909463 -301592615 -229811477 -266449020#1 -266449020#0 926324811 376693858 926324819 266449030#0 266449030#1 266364733#0 266364733#1 238656650 -991504196 -266364708#1 -266364708#0 -502064955#1 -502064955#0 -96230484 -80390543 38196443 229811476#0 229811476#1 229811476#2 229811476#3 954467395#0 954467395#1 1087706711 30711441 854710129 991504190#0 991504190#1 854710130 30711442 854710072#0 854710072#1 854710073 854710022#0 854710022#1 87289386#0 87289386#1 87289386#2 1087706712 854710023 1087706715#0 1087706715#1 1413556481 1413556482 1413556483 1413556484 1413556485 1413556486 1413556487 1413556488 4858237 137730384"/>
    </flow>
    <flow id="114" begin="0.00" end="3600.00" period="1000">
        <route edges="240890023#0 240890023#1 240890023#2 240890023#3 240890023#4 -229811476#2 -229811476#1 -229811476#0 -38196443 80390543 96230484 502064955#0 502064955#1 266364708#0 266364708#1 4850964#0 4850964#1 266364735 148754588 266449028 266449027 926324813 229808013 229808015 4514491 229808012#0 229808012#1 229808012#2 49967814#0 49967814#1 49967814#2 49967814#3 49967814#4 49967814#5 49967814#6 1269148393 49967704 97381228#0 97381228#1 97381230 42368103#0 42368103#1 42368103#2 440834742 42368104#0 42368104#1 42368104#2 42368104#3 12856650#0 12856650#1 301592619#0 301592619#1 301592619#2 301592619#3 117912032#0 117912032#1 117912032#2 61456605#0 61456605#1 61456605#2 61456605#3 61456605#4 -860204567#2 -860204567#1 -860204567#0"/>
    </flow>
    <flow id="115" begin="0.00" end="3600.00" period="1000">
        <route edges="266364696#3 1413458023#0 1413458023#1 1278501566 382344626#0 382344626#1 382344626#2 382344626#3 382344626#4 229811475#0 229811475#1 302980585 29065483#0 29065483#1 142692021 28494147 208500591#0 208500591#1 148754589 266364703#0 266364703#1 266364703#2 4850964#0 4850964#1 266364735 148754588 266449028 266449027 926324813 229808013 4850966 301592631 49582141 301592630 151393377 441319290 1056610260 159016933 441319289 49587760 758932762#0 758932762#1 758932762#2 922863981#0 922863981#1 1409214180 1409214324 1409214504#0 1409214504#1 1409223008 4223109#0 4223109#1 4223109#2 1409223887 1409225036 1409225174 139189235 139189236#0 139189236#1 472503788#0 472503788#1 472503788#2 1237321922#0 1237321922#1 139189234#0 139189234#1 139189234#2 139161396#0"/>
    </flow>
    <flow id="116" begin="0.00" end="3600.00" period="1000">
        <route edges="266632198#0 266632198#1 266632198#2 266632198#3 266632198#4 45352938#0 45352938#1 45352938#2 45352938#3 4223103#0 4223103#1 874778294 138929036 1198084038 24246447 52289654 60907851 46095473 38934262 137730386 137730390 1313449059 1362269936 1362266941 1362266940 4858217#0 4858217#1 4858217#2 -854710073 -854710072#1 -854710072#0 -30711442 -854710130 -991504190#1 -991504190#0 -854710129 -30711441 -1087706711 -954467395#1 -954467395#0 -229811476#3 -229811476#2 -229811476#1 -229811476#0 -38196443 80390543 96230484 502064955#0 502064955#1 266364708#0 266364708#1 4850964#0 4850964#1 266364735 88196096 266449029"/>
    </flow>
    <flow id="117" begin="0.00" end="3600.00" period="1000">
        <route edges="172256533#0 172256533#1 172256533#2 172256533#3 -172256533#3 -172256533#2 -172256533#1 -172256533#0 -1056569476 139188143 139188142 5073183 1198022891#0 1198022891#1 1198022891#2 1198022891#3 -39503239 1269148393 49967704 1414980234 40739235#0 40739235#1 301592628#0 301592628#1 64942958#0 64942958#1 135811281#0 135811281#1 135811281#2 135811281#3 30284004#0 30284004#1 30284004#2 1079644264 1079644261 34249958#0 138954833#0 138954833#1 301727539#0 301727539#1 301727539#2 136551174#0 136551174#1 301727558#0 301727558#1 301727557 142685258#0 142685258#1 301727559 48555168#5 4886409 138945454#0 138945454#1"/>
    </flow>
    <flow id="118" begin="0.00" end="3600.00" period="1000">
        <route edges="1053264980 1053264979 1053264984 8106410 4702468#0 4702468#1 4702468#2 860204568#0 860204568#1 860204568#2 860204568#3 139015291#0 139015291#1 139015291#2 42368105#0 42368105#1 42368105#2 42368105#3 42368105#4 42368106#0 42368106#1 42368106#2 45578479 569210044#0 569210044#1 569210044#2 569210044#3 569210044#4 139187359#0 569210043#0 569210043#1 569210043#2 -238511028#2 -238511028#1 -238511028#0 -172256533#3 -172256533#2 -172256533#1 -172256533#0 -1056569476 139188143 139188142 5073183 1198022891#0 1198022891#1 1198022891#2 1198022891#3 -39503239 1269148393 49967704 1414980234 40739235#0 40739235#1 301592628#0 301592628#1 64942958#0 64942958#1 135811281#0 135811281#1 135811281#2 135811281#3 139017253#0 139017253#1 97379345#0 97379345#1 97379345#2 1192498379 4858218#0 4858218#1 4858218#2 4223132#4 4223132#5 4223132#6 -52289653#2 -52289653#1 -52289653#0 -52289654 -137730395 -856026311 -4223113#2 -4223113#1 -4223113#0 4223113#0 4223113#1"/>
    </flow>
    <flow id="119" begin="0.00" end="3600.00" period="1000">
        <route edges="28494147 208500591#0 208500591#1 148754589 266364703#0 266364703#1 266364703#2 4850964#0 4850964#1 266364735 148754588 266449028 266449027 926324813 229808013 229808015 4514491 229808012#0 229808012#1 229808012#2 49967814#0 49967814#1 49967814#2 49967814#3 49967814#4 49967814#5 49967814#6 1269148393 49967704 1414980234 40739235#0 40739235#1 301592628#0 301592628#1 64942958#0 64942958#1 135811281#0 135811281#1 135811281#2 135811281#3 30284004#0 30284004#1 30284004#2 1079644264 1079644261 34249958#0 34249958#1 472907539#0 472907539#1 266632162 34186411 34186412#0 34186412#1 138945456#0 138945456#1 1033814524 30284189#0 30284189#1 301727535#0 301727535#1 301727535#2 97379344 1033814526#0 1033814526#1 1033814526#2 35742415#0 35742415#1 35742415#2 35742415#3 4514392#0 4514392#1 301727524 301727526#0 301727526#1 301727526#2 1126499606 97375923 1126499607#0"/>
    </flow>
    <flow id="12" begin="0.00" end="3600.00" period="1000">
        <route edges="-27617251#1 -27617251#0 -1087706713 -854709915 -854710023 -1087706712 -87289386#2 -87289386#1 -87289386#0 -854710022#1 -854710022#0 -854710073 -854710072#1 -854710072#0 -30711442 -854710130 -991504190#1 -991504190#0 -854710129 -30711441 -1087706711 -954467395#1 -954467395#0 -229811476#3 -229811476#2 -229811476#1 -229811476#0 -38196443 80390543 96230484 502064955#0 502064955#1 266364708#0 266364708#1 4850964#0 4850964#1 266364735 148754588 266449028 266449027 926324813 229808013 4850966 301592631 49582141 301592630 151393377 441319290 1056610260 159016933 441319289 49587760 758932762#0 758932762#1 758932762#2 922863981#0 922863981#1 1409214180 1409214324 1409214504#0 1409214504#1 1409223008 4223109#0 4223109#1 4223109#2 1409223887 1409225036 1409225174 139189235 139189233#0 139189233#1 139189233#2 -1053272469#1 -1053272469#0 -1408862615 -1408873140 -1408862490#2 -1408862490#1 -1408862490#0 1408862490#0 1408862490#1 1408862490#2"/>
    </flow>
    <flow id="120" begin="0.00" end="3600.00" period="1000">
        <route edges="225400721 1072583794 117912032#0 117912032#1 117912032#2 101325123#0 101325123#1 101325123#2 101325123#3 139015291#0 139015291#1 139015291#2 42368105#0 42368105#1 42368105#2 42368105#3 42368105#4 42368106#0 42368106#1 42368106#2 45578479 569210044#0 569210044#1 569210044#2 569210044#3 569210044#4 139187359#0 139187359#1 139187359#2 229811478 229811479 301592618 4850967 229808016#0 229808016#1 229808014#0 229808014#1 143559280 926324812 926324817"/>
    </flow>
    <flow id="121" begin="0.00" end="3600.00" period="1000">
        <route edges="302980588#1 302980588#2 301082096#0 301082096#1 301727548 301082104 301082099 950169075#0 950169075#1 300629724#0 300629724#1 302980587#0 302980587#1 302973540 -302980603 301082095#0 301082095#1 302973548#0 302973548#1 126392270#0 126392270#1 1126499607#1 1414980242 301082101#0 301082101#1 301082101#2 37251200#0 37251200#1 37251200#2 139017252#0 139017252#1 1414381766 301592609 1056870522#0 1056870522#1 1056870522#2 1056870522#3 1056870522#4 139110194#0 139110194#1 139110194#2 42368106#0 42368106#1 42368106#2 45578479 569210044#0 569210044#1 569210044#2 569210044#3 569210044#4 139187359#0 139187359#1 139187359#2 229811478 151393376#0 151393376#1 151393377 441319290 1056610260 159016933 441319289 49587760 758932762#0 758932762#1 758932762#2 4850965 148754587#0 148754587#1 148754587#2 148754587#3 148754587#4 1333172001#0 1333172001#1 24527732#0 24527732#1 503322104#0 503322104#1 502484458#0 502484458#1 1293506707 24527721#0 24527721#1 49501589 1396161901#0 1396161901#1 1396162832 1396163704 5069789 1333771562#0 1333771562#1 1333771562#2 167633348#2 908195830#0 908195830#1 1080510584 908195831#0 908195831#1 4943633#0"/>
    </flow>
    <flow id="122" begin="0.00" end="3600.00" period="1000">
        <route edges="42368101#1 42368101#2 42367703#0 42367703#1 42367703#2 42367703#3 243690754 97375949 302654044 42367704#1 829955754#0 829955754#1 1053264980 1053264979 1053264984 8106410 4702468#0 4702468#1 4702468#2 860204568#0 860204568#1 860204568#2 860204568#3 139015291#0 139015291#1 139015291#2 42368105#0 42368105#1 42368105#2 42368105#3 42368105#4 42368106#0 42368106#1 42368106#2 45578479 569210044#0 569210044#1 569210044#2 569210044#3 569210044#4 139187359#0 139187359#1 139187359#2 229811478 229811479 301592618 4850967 229808016#0 229808016#1 229808011 384870499#0 384870499#1 266449020#0 266449020#1 229811477 301592615 5072869 49967561#0 49967561#1 49967561#2 495766639#0 495766639#1 24535786#0 24535786#1 24527662#0 24527662#1 24527662#2 4722379#0"/>
    </flow>
    <flow id="123" begin="0.00" end="3600.00" period="1000">