<configuration>
    <input>
        <net-file value="frankfurt_kfz.net.xml"/>
        
        <route-files value="frankfurt.rou.xml"/>
    </input>
    
    <time>
        <begin value="0"/>
        
        <end value="3600"/>
    </time>
    
    </configuration>
