<?xml version="1.0" encoding="UTF-8"?>

<!-- generated on 2025-12-11T15:46:24.184617+01:00 by Eclipse SUMO netedit v1_24_0+1845-01be9a8093d
-->

<routes xmlns:xsi="http://www.w3.org/2001/XMLSchema-instance" xsi:noNamespaceSchemaLocation="http://sumo.dlr.de/xsd/routes_file.xsd">
    <!-- Routes -->
    <route id="r_0" edges="47996539 29065489 755967409 28494147 208500591#0 208500591#1 148754589 266364703#0 266364703#1 266364703#2 4850964#0 4850964#1 266364735 148754588 266449028 266449027 926324813 229808013 229808015 4514491 229808012#0 229808012#1 229808012#2 49967814#0 49967814#1 49967814#2 49967814#3 49967814#4 49967814#5 49967814#6 1269148393 49967704 97381228#0 97381228#1 97381230 42368103#0 42368103#1 42368103#2 440834742 42368104#0 42368104#1 42368104#2 42368104#3 12856650#0 12856650#1 301592619#0 301592619#1 301592619#2 301592619#3 117912032#0 117912032#1 117912032#2 101325123#0 101325123#1 101325123#2 101325123#3 139015291#0 139015291#1 139015291#2 42368105#0 42368105#1 42368105#2 42368105#3 42368105#4 42368106#0 42368106#1 42368106#2 45578479 569210044#0 569210044#1 569210044#2 569210044#3 569210044#4 139187359#0 569210043#0 569210043#1 569210043#2 -238511028#2 -238511028#1 -238511028#0 -172256533#3 -172256533#2 -172256533#1 -172256533#0 -1056569476 139188143 139188142 5073183 1198022891#0 1198022891#1 1198022891#2 1198022891#3 -39503239 1269148393 49967704 97381228#0 97381228#1 97381230 42368103#0 42368103#1 42368103#2 440834742 42368104#0 42368104#1 42368104#2 42368104#3 12856650#0 12856650#1 301592619#0 301592619#1 301592619#2 301592619#3 117912031#0 117912031#1 47986351#0 47986351#1 47986351#2"/>
</routes>
