<?xml version="1.0" encoding="UTF-8"?>

<!-- generated on 2025-11-24 13:09:06 by Eclipse SUMO netedit Version 1.24.0
-->

<routes xmlns:xsi="http://www.w3.org/2001/XMLSchema-instance" xsi:noNamespaceSchemaLocation="http://sumo.dlr.de/xsd/routes_file.xsd">
    <!-- VTypes -->
    <vType id="grey_car" color="69,69,69"/>
    <vType id="t_0"/>
    <vType id="t_1"/>
    <vType id="t_2"/>
    <vType id="t_3"/>
    <vType id="t_4"/>
    <vType id="t_5"/>
    <!-- Routes -->
    <route id="r0" edges="E7 E0 E1 E2 E4 E5 E8"/>
    <route id="r1" edges="E3 E2 E4 E5 E6 E0 E1 E2 E4 E5 E8"/>
</routes>
