<?xml version="1.0" encoding="UTF-8"?>

<!-- generated on 2025-12-11T22:04:25.361976+01:00 by Eclipse SUMO netedit v1_24_0+1845-01be9a8093d
<neteditConfiguration xmlns:xsi="http://www.w3.org/2001/XMLSchema-instance" xsi:noNamespaceSchemaLocation="http://sumo.dlr.de/xsd/neteditConfiguration.xsd">

    <input>
        <sumo-net-file value="/home/kevin/Dokumente/bhfvierteltrafficlights.net.xml"/>
    </input>

    <output>
        <output-file value="/home/kevin/Dokumente/bhfvierteltrafficlights.net.xml"/>
    </output>

    <processing>
        <geometry.min-radius.fix.railways value="false"/>
        <geometry.avoid-overlap value="false"/>
        <geometry.max-grade.fix value="false"/>
        <offset.disable-normalization value="true"/>
        <lefthand value="0"/>
    </processing>

    <junctions>
        <no-turnarounds value="true"/>
        <junctions.corner-detail value="5"/>
        <junctions.limit-turn-speed value="5.50"/>
        <rectangular-lane-cut value="0"/>
    </junctions>

    <pedestrian>
        <walkingareas value="0"/>
    </pedestrian>

</neteditConfiguration>
-->

<net version="1.20" junctionCornerDetail="5" limitTurnSpeed="5.50" avoidOverlap="0" xmlns:xsi="http://www.w3.org/2001/XMLSchema-instance" xsi:noNamespaceSchemaLocation="http://sumo.dlr.de/xsd/net_file.xsd">

    <location netOffset="0.00,0.00" convBoundary="-401.85,-1591.34,1514.99,14.98" origBoundary="-10000000000.00,-10000000000.00,10000000000.00,10000000000.00" projParameter="!"/>

    <edge id=":J11_0" function="internal">
        <lane id=":J11_0_0" index="0" speed="6.51" length="9.03" shape="-4.60,-1211.20 -7.05,-1210.85 -8.80,-1209.80 -9.85,-1208.05 -10.20,-1205.60"/>
        <lane id=":J11_0_1" index="1" speed="8.00" length="14.19" shape="-4.60,-1214.40 -8.45,-1213.85 -11.20,-1212.20 -12.85,-1209.45 -13.40,-1205.60"/>
    </edge>
    <edge id=":J11_2" function="internal">
        <lane id=":J11_2_0" index="0" speed="6.81" length="9.58" shape="-10.77,-1226.65 -10.26,-1224.09 -9.07,-1222.26 -7.18,-1221.17 -4.60,-1220.80"/>
    </edge>
    <edge id=":J11_3" function="internal">
        <lane id=":J11_3_0" index="0" speed="13.89" length="20.97" shape="-10.77,-1226.65 -10.20,-1205.60"/>
        <lane id=":J11_3_1" index="1" speed="13.89" length="20.97" shape="-13.96,-1226.48 -13.40,-1205.60"/>
    </edge>
    <edge id=":J11_5" function="internal">
        <lane id=":J11_5_0" index="0" speed="13.89" length="14.75" shape="-19.35,-1220.80 -4.60,-1220.80"/>
        <lane id=":J11_5_1" index="1" speed="13.89" length="14.75" shape="-19.35,-1217.60 -4.60,-1217.60"/>
    </edge>
    <edge id=":J11_7" function="internal">
        <lane id=":J11_7_0" index="0" speed="8.16" length="9.54" shape="-19.35,-1217.60 -16.74,-1216.85 -14.89,-1214.60 -13.77,-1210.85"/>
    </edge>
    <edge id=":J11_8" function="internal">
        <lane id=":J11_8_0" index="0" speed="8.16" length="5.26" shape="-13.77,-1210.85 -13.40,-1205.60"/>
    </edge>
    <edge id=":J15_0" function="internal">
        <lane id=":J15_0_0" index="0" speed="13.89" length="4.80" shape="1192.85,-1210.58 1191.67,-1210.98 1190.83,-1211.16 1189.97,-1211.21 1188.71,-1211.20"/>
        <lane id=":J15_0_1" index="1" speed="13.89" length="4.80" shape="1193.97,-1213.58 1192.47,-1214.10 1191.40,-1214.34 1190.31,-1214.40 1188.71,-1214.40"/>
    </edge>
    <edge id=":J15_2" function="internal">
        <lane id=":J15_2_0" index="0" speed="8.74" length="4.75" shape="1188.71,-1220.80 1189.85,-1220.82 1190.63,-1220.94 1191.36,-1221.25 1192.33,-1221.83"/>
        <lane id=":J15_2_1" index="1" speed="10.49" length="4.75" shape="1188.71,-1217.60 1190.38,-1217.63 1191.52,-1217.81 1192.59,-1218.26 1194.02,-1219.11"/>
    </edge>
    <edge id=":J16_0" function="internal">
        <lane id=":J16_0_0" index="0" speed="4.03" length="1.66" shape="1246.45,-1189.79 1246.33,-1190.20 1246.12,-1190.54 1245.82,-1190.81 1245.44,-1191.00"/>
        <lane id=":J16_0_1" index="1" speed="6.31" length="4.97" shape="1249.60,-1190.37 1249.23,-1191.60 1248.59,-1192.61 1247.70,-1193.42 1246.55,-1194.00"/>
    </edge>
    <edge id=":J17_0" function="internal">
        <lane id=":J17_0_0" index="0" speed="4.02" length="1.69" shape="1238.02,-1250.20 1238.37,-1250.48 1238.61,-1250.80 1238.75,-1251.19 1238.78,-1251.62"/>
        <lane id=":J17_0_1" index="1" speed="6.29" length="5.07" shape="1239.71,-1247.49 1240.74,-1248.30 1241.46,-1249.29 1241.88,-1250.44 1241.98,-1251.75"/>
    </edge>
    <edge id=":J21_0" function="internal">
        <lane id=":J21_0_0" index="0" speed="7.33" length="11.73" shape="-10.20,-689.40 -9.65,-686.95 -8.00,-685.20 -5.25,-684.15 -1.40,-683.80"/>
    </edge>
    <edge id=":J21_1" function="internal">
        <lane id=":J21_1_0" index="0" speed="13.89" length="14.71" shape="-10.20,-689.40 -9.70,-685.08 -8.60,-682.20 -7.50,-679.32 -7.00,-675.00"/>
        <lane id=":J21_1_1" index="1" speed="13.89" length="14.71" shape="-13.40,-689.40 -12.90,-685.08 -11.80,-682.20 -10.70,-679.32 -10.20,-675.00"/>
        <lane id=":J21_1_2" index="2" speed="13.89" length="14.71" shape="-13.40,-689.40 -13.40,-675.00"/>
    </edge>
    <edge id=":J21_4" function="internal">
        <lane id=":J21_4_0" index="0" speed="13.89" length="17.60" shape="-19.00,-683.80 -1.40,-683.80"/>
        <lane id=":J21_4_1" index="1" speed="13.89" length="17.60" shape="-19.00,-680.60 -1.40,-680.60"/>
    </edge>
    <edge id=":J21_6" function="internal">
        <lane id=":J21_6_0" index="0" speed="7.33" length="11.73" shape="-19.00,-680.60 -15.15,-680.25 -12.40,-679.20 -10.75,-677.45 -10.20,-675.00"/>
        <lane id=":J21_6_1" index="1" speed="6.51" length="9.03" shape="-19.00,-680.60 -16.55,-680.25 -14.80,-679.20 -13.75,-677.45 -13.40,-675.00"/>
    </edge>
    <edge id=":J22_0" function="internal">
        <lane id=":J22_0_0" index="0" speed="6.51" length="9.03" shape="-1.40,-515.40 -3.85,-515.05 -5.60,-514.00 -6.65,-512.25 -7.00,-509.80"/>
    </edge>
    <edge id=":J22_1" function="internal">
        <lane id=":J22_1_0" index="0" speed="6.51" length="9.03" shape="-7.00,-524.20 -6.65,-521.75 -5.60,-520.00 -3.85,-518.95 -1.40,-518.60"/>
    </edge>
    <edge id=":J22_2" function="internal">
        <lane id=":J22_2_0" index="0" speed="13.89" length="14.40" shape="-7.00,-524.20 -7.00,-509.80"/>
        <lane id=":J22_2_1" index="1" speed="13.89" length="14.40" shape="-10.20,-524.20 -10.20,-509.80"/>
        <lane id=":J22_2_2" index="2" speed="13.89" length="14.40" shape="-13.40,-524.20 -13.40,-509.80"/>
    </edge>
    <edge id=":J23_0" function="internal">
        <lane id=":J23_0_0" index="0" speed="6.52" length="14.58" shape="-1.40,-334.40 -5.04,-333.80 -6.26,-332.02 -5.05,-329.04 -1.43,-324.87"/>
    </edge>
    <edge id=":J23_1" function="internal">
        <lane id=":J23_1_0" index="0" speed="8.07" length="14.44" shape="-1.40,-334.40 -3.85,-333.66 -5.60,-331.43 -6.65,-327.73 -7.00,-322.54"/>
    </edge>
    <edge id=":J23_2" function="internal">
        <lane id=":J23_2_0" index="0" speed="6.51" length="9.03" shape="-7.00,-343.20 -6.65,-340.75 -5.60,-339.00 -3.85,-337.95 -1.40,-337.60"/>
    </edge>
    <edge id=":J23_3" function="internal">
        <lane id=":J23_3_0" index="0" speed="13.89" length="19.62" shape="-7.00,-343.20 -6.65,-337.24 -5.61,-332.20 -3.87,-328.08 -1.43,-324.87"/>
    </edge>
    <edge id=":J23_4" function="internal">
        <lane id=":J23_4_0" index="0" speed="13.89" length="20.66" shape="-7.00,-343.20 -7.00,-322.54"/>
        <lane id=":J23_4_1" index="1" speed="13.89" length="20.66" shape="-10.20,-343.20 -10.20,-322.54"/>
        <lane id=":J23_4_2" index="2" speed="13.89" length="20.66" shape="-13.40,-343.20 -13.40,-322.54"/>
    </edge>
    <edge id=":J25_0" function="internal">
        <lane id=":J25_0_0" index="0" speed="7.33" length="11.73" shape="194.40,-675.00 194.95,-677.45 196.60,-679.20 199.35,-680.25 203.20,-680.60"/>
    </edge>
    <edge id=":J25_1" function="internal">
        <lane id=":J25_1_0" index="0" speed="6.51" length="9.03" shape="197.60,-689.40 197.95,-686.95 199.00,-685.20 200.75,-684.15 203.20,-683.80"/>
    </edge>
    <edge id=":J25_2" function="internal">
        <lane id=":J25_2_0" index="0" speed="13.89" length="14.40" shape="188.80,-683.80 203.20,-683.80"/>
        <lane id=":J25_2_1" index="1" speed="13.89" length="14.40" shape="188.80,-680.60 203.20,-680.60"/>
    </edge>
    <edge id=":J26_0" function="internal">
        <lane id=":J26_0_0" index="0" speed="13.89" length="11.20" shape="506.00,-683.80 517.20,-683.80"/>
        <lane id=":J26_0_1" index="1" speed="13.89" length="11.20" shape="506.00,-680.60 517.20,-680.60"/>
    </edge>
    <edge id=":J26_2" function="internal">
        <lane id=":J26_2_0" index="0" speed="6.51" length="9.03" shape="506.00,-680.60 508.45,-680.25 510.20,-679.20 511.25,-677.45 511.60,-675.00"/>
    </edge>
    <edge id=":J27_0" function="internal">
        <lane id=":J27_0_0" index="0" speed="6.08" length="7.76" shape="848.40,-677.50 848.79,-678.86 849.97,-679.83 851.94,-680.41 854.70,-680.60"/>
    </edge>
    <edge id=":J27_1" function="internal">
        <lane id=":J27_1_0" index="0" speed="13.89" length="9.40" shape="845.30,-683.80 854.70,-683.80"/>
        <lane id=":J27_1_1" index="1" speed="13.89" length="9.40" shape="845.30,-680.60 854.70,-680.60"/>
    </edge>
    <edge id=":J27_3" function="internal">
        <lane id=":J27_3_0" index="0" speed="6.08" length="7.76" shape="845.30,-680.60 848.06,-680.41 850.02,-679.83 851.21,-678.86 851.60,-677.50"/>
    </edge>
    <edge id=":J28_0" function="internal">
        <lane id=":J28_0_0" index="0" speed="4.11" length="1.42" shape="1203.95,-683.80 1204.31,-683.84 1204.64,-683.95 1204.93,-684.13 1205.19,-684.39"/>
        <lane id=":J28_0_1" index="1" speed="6.47" length="4.27" shape="1203.95,-680.60 1205.04,-680.71 1206.03,-681.04 1206.90,-681.60 1207.68,-682.38"/>
    </edge>
    <edge id=":J29_0" function="internal">
        <lane id=":J29_0_0" index="0" speed="6.51" length="9.03" shape="203.20,-515.40 200.75,-515.05 199.00,-514.00 197.95,-512.25 197.60,-509.80"/>
    </edge>
    <edge id=":J29_1" function="internal">
        <lane id=":J29_1_0" index="0" speed="13.89" length="14.40" shape="203.20,-515.40 188.80,-515.40"/>
    </edge>
    <edge id=":J29_2" function="internal">
        <lane id=":J29_2_0" index="0" speed="8.00" length="4.07" shape="203.20,-515.40 199.35,-515.95 199.20,-516.04"/>
    </edge>
    <edge id=":J29_6" function="internal">
        <lane id=":J29_6_0" index="0" speed="8.00" length="10.13" shape="199.20,-516.04 196.60,-517.60 194.95,-520.35 194.40,-524.20"/>
    </edge>
    <edge id=":J29_3" function="internal">
        <lane id=":J29_3_0" index="0" speed="6.51" length="9.03" shape="188.80,-518.60 191.25,-518.95 193.00,-520.00 194.05,-521.75 194.40,-524.20"/>
    </edge>
    <edge id=":J29_4" function="internal">
        <lane id=":J29_4_0" index="0" speed="13.89" length="14.40" shape="188.80,-518.60 203.20,-518.60"/>
    </edge>
    <edge id=":J29_5" function="internal">
        <lane id=":J29_5_0" index="0" speed="8.00" length="4.07" shape="188.80,-518.60 192.65,-518.05 192.80,-517.96"/>
    </edge>
    <edge id=":J29_7" function="internal">
        <lane id=":J29_7_0" index="0" speed="8.00" length="10.13" shape="192.80,-517.96 195.40,-516.40 197.05,-513.65 197.60,-509.80"/>
    </edge>
    <edge id=":J3_0" function="internal">
        <lane id=":J3_0_0" index="0" speed="13.89" length="0.26" shape="1154.81,-65.07 1154.82,-65.20"/>
        <lane id=":J3_0_1" index="1" speed="13.89" length="0.26" shape="1157.97,-64.56 1158.01,-64.96"/>
    </edge>
    <edge id=":J30_0" function="internal">
        <lane id=":J30_0_0" index="0" speed="6.51" length="9.03" shape="508.40,-509.80 508.05,-512.25 507.00,-514.00 505.25,-515.05 502.80,-515.40"/>
    </edge>
    <edge id=":J30_1" function="internal">
        <lane id=":J30_1_0" index="0" speed="8.00" length="10.30" shape="508.40,-509.80 508.95,-513.65 510.60,-516.40 513.35,-518.05"/>
    </edge>
    <edge id=":J30_6" function="internal">
        <lane id=":J30_6_0" index="0" speed="8.00" length="3.89" shape="513.35,-518.05 517.20,-518.60"/>
    </edge>
    <edge id=":J30_2" function="internal">
        <lane id=":J30_2_0" index="0" speed="13.89" length="14.40" shape="517.20,-515.40 502.80,-515.40"/>
    </edge>
    <edge id=":J30_3" function="internal">
        <lane id=":J30_3_0" index="0" speed="6.51" length="9.03" shape="511.60,-524.20 511.95,-521.75 513.00,-520.00 514.75,-518.95 517.20,-518.60"/>
    </edge>
    <edge id=":J30_4" function="internal">
        <lane id=":J30_4_0" index="0" speed="8.00" length="10.30" shape="511.60,-524.20 511.05,-520.35 509.40,-517.60 506.65,-515.95"/>
    </edge>
    <edge id=":J30_7" function="internal">
        <lane id=":J30_7_0" index="0" speed="8.00" length="3.89" shape="506.65,-515.95 502.80,-515.40"/>
    </edge>
    <edge id=":J30_5" function="internal">
        <lane id=":J30_5_0" index="0" speed="13.89" length="14.40" shape="502.80,-518.60 517.20,-518.60"/>
    </edge>
    <edge id=":J31_0" function="internal">
        <lane id=":J31_0_0" index="0" speed="6.51" length="9.03" shape="848.40,-509.80 848.05,-512.25 847.00,-514.00 845.25,-515.05 842.80,-515.40"/>
    </edge>
    <edge id=":J31_1" function="internal">
        <lane id=":J31_1_0" index="0" speed="13.89" length="14.40" shape="848.40,-509.80 848.40,-524.20"/>
    </edge>
    <edge id=":J31_2" function="internal">
        <lane id=":J31_2_0" index="0" speed="8.00" length="4.07" shape="848.40,-509.80 848.95,-513.65 849.04,-513.80"/>
    </edge>
    <edge id=":J31_12" function="internal">
        <lane id=":J31_12_0" index="0" speed="8.00" length="10.13" shape="849.04,-513.80 850.60,-516.40 853.35,-518.05 857.20,-518.60"/>
    </edge>
    <edge id=":J31_3" function="internal">
        <lane id=":J31_3_0" index="0" speed="6.51" length="9.03" shape="857.20,-515.40 854.75,-515.05 853.00,-514.00 851.95,-512.25 851.60,-509.80"/>
    </edge>
    <edge id=":J31_4" function="internal">
        <lane id=":J31_4_0" index="0" speed="13.89" length="14.40" shape="857.20,-515.40 842.80,-515.40"/>
    </edge>
    <edge id=":J31_5" function="internal">
        <lane id=":J31_5_0" index="0" speed="8.00" length="4.07" shape="857.20,-515.40 853.35,-515.95 853.20,-516.04"/>
    </edge>
    <edge id=":J31_13" function="internal">
        <lane id=":J31_13_0" index="0" speed="8.00" length="10.13" shape="853.20,-516.04 850.60,-517.60 848.95,-520.35 848.40,-524.20"/>
    </edge>
    <edge id=":J31_6" function="internal">
        <lane id=":J31_6_0" index="0" speed="6.51" length="9.03" shape="851.60,-524.20 851.95,-521.75 853.00,-520.00 854.75,-518.95 857.20,-518.60"/>
    </edge>
    <edge id=":J31_7" function="internal">
        <lane id=":J31_7_0" index="0" speed="13.89" length="14.40" shape="851.60,-524.20 851.60,-509.80"/>
    </edge>
    <edge id=":J31_8" function="internal">
        <lane id=":J31_8_0" index="0" speed="8.00" length="4.07" shape="851.60,-524.20 851.05,-520.35 850.96,-520.20"/>
    </edge>
    <edge id=":J31_14" function="internal">
        <lane id=":J31_14_0" index="0" speed="8.00" length="10.13" shape="850.96,-520.20 849.40,-517.60 846.65,-515.95 842.80,-515.40"/>
    </edge>
    <edge id=":J31_9" function="internal">
        <lane id=":J31_9_0" index="0" speed="6.51" length="9.03" shape="842.80,-518.60 845.25,-518.95 847.00,-520.00 848.05,-521.75 848.40,-524.20"/>
    </edge>
    <edge id=":J31_10" function="internal">
        <lane id=":J31_10_0" index="0" speed="13.89" length="14.40" shape="842.80,-518.60 857.20,-518.60"/>
    </edge>
    <edge id=":J31_11" function="internal">
        <lane id=":J31_11_0" index="0" speed="8.00" length="4.07" shape="842.80,-518.60 846.65,-518.05 846.80,-517.96"/>
    </edge>
    <edge id=":J31_15" function="internal">
        <lane id=":J31_15_0" index="0" speed="8.00" length="10.13" shape="846.80,-517.96 849.40,-516.40 851.05,-513.65 851.60,-509.80"/>
    </edge>
    <edge id=":J33_0" function="internal">
        <lane id=":J33_0_0" index="0" speed="6.51" length="9.03" shape="203.20,-334.40 200.75,-334.05 199.00,-333.00 197.95,-331.25 197.60,-328.80"/>
    </edge>
    <edge id=":J33_1" function="internal">
        <lane id=":J33_1_0" index="0" speed="13.89" length="11.20" shape="203.20,-334.40 192.00,-334.40"/>
    </edge>
    <edge id=":J33_2" function="internal">
        <lane id=":J33_2_0" index="0" speed="6.51" length="9.03" shape="197.60,-343.20 197.95,-340.75 199.00,-339.00 200.75,-337.95 203.20,-337.60"/>
    </edge>
    <edge id=":J33_3" function="internal">
        <lane id=":J33_3_0" index="0" speed="13.89" length="14.40" shape="197.60,-343.20 197.60,-328.80"/>
    </edge>
    <edge id=":J33_4" function="internal">
        <lane id=":J33_4_0" index="0" speed="7.33" length="11.73" shape="197.60,-343.20 197.25,-339.35 196.20,-336.60 194.45,-334.95 192.00,-334.40"/>
    </edge>
    <edge id=":J33_5" function="internal">
        <lane id=":J33_5_0" index="0" speed="13.89" length="11.20" shape="192.00,-337.60 203.20,-337.60"/>
    </edge>
    <edge id=":J33_6" function="internal">
        <lane id=":J33_6_0" index="0" speed="7.33" length="2.51" shape="192.00,-337.60 194.45,-337.05"/>
    </edge>
    <edge id=":J33_7" function="internal">
        <lane id=":J33_7_0" index="0" speed="7.33" length="9.21" shape="194.45,-337.05 196.20,-335.40 197.25,-332.65 197.60,-328.80"/>
    </edge>
    <edge id=":J34_0" function="internal">
        <lane id=":J34_0_0" index="0" speed="6.51" length="9.03" shape="517.20,-334.40 514.75,-334.05 513.00,-333.00 511.95,-331.25 511.60,-328.80"/>
    </edge>
    <edge id=":J34_1" function="internal">
        <lane id=":J34_1_0" index="0" speed="13.89" length="14.40" shape="517.20,-334.40 502.80,-334.40"/>
    </edge>
    <edge id=":J34_2" function="internal">
        <lane id=":J34_2_0" index="0" speed="8.00" length="4.07" shape="517.20,-334.40 513.35,-334.95 513.20,-335.04"/>
    </edge>
    <edge id=":J34_6" function="internal">
        <lane id=":J34_6_0" index="0" speed="8.00" length="10.13" shape="513.20,-335.04 510.60,-336.60 508.95,-339.35 508.40,-343.20"/>
    </edge>
    <edge id=":J34_3" function="internal">
        <lane id=":J34_3_0" index="0" speed="6.51" length="9.03" shape="502.80,-337.60 505.25,-337.95 507.00,-339.00 508.05,-340.75 508.40,-343.20"/>
    </edge>
    <edge id=":J34_4" function="internal">
        <lane id=":J34_4_0" index="0" speed="13.89" length="14.40" shape="502.80,-337.60 517.20,-337.60"/>
    </edge>
    <edge id=":J34_5" function="internal">
        <lane id=":J34_5_0" index="0" speed="8.00" length="4.07" shape="502.80,-337.60 506.65,-337.05 506.80,-336.96"/>
    </edge>
    <edge id=":J34_7" function="internal">
        <lane id=":J34_7_0" index="0" speed="8.00" length="10.13" shape="506.80,-336.96 509.40,-335.40 511.05,-332.65 511.60,-328.80"/>
    </edge>
    <edge id=":J35_0" function="internal">
        <lane id=":J35_0_0" index="0" speed="6.51" length="9.03" shape="848.40,-328.80 848.05,-331.25 847.00,-333.00 845.25,-334.05 842.80,-334.40"/>
    </edge>
    <edge id=":J35_1" function="internal">
        <lane id=":J35_1_0" index="0" speed="13.89" length="14.40" shape="848.40,-328.80 848.40,-343.20"/>
    </edge>
    <edge id=":J35_2" function="internal">
        <lane id=":J35_2_0" index="0" speed="8.00" length="4.07" shape="848.40,-328.80 848.95,-332.65 849.04,-332.80"/>
    </edge>
    <edge id=":J35_12" function="internal">
        <lane id=":J35_12_0" index="0" speed="8.00" length="10.13" shape="849.04,-332.80 850.60,-335.40 853.35,-337.05 857.20,-337.60"/>
    </edge>
    <edge id=":J35_3" function="internal">
        <lane id=":J35_3_0" index="0" speed="6.51" length="9.03" shape="857.20,-334.40 854.75,-334.05 853.00,-333.00 851.95,-331.25 851.60,-328.80"/>
    </edge>
    <edge id=":J35_4" function="internal">
        <lane id=":J35_4_0" index="0" speed="13.89" length="14.40" shape="857.20,-334.40 842.80,-334.40"/>
    </edge>
    <edge id=":J35_5" function="internal">
        <lane id=":J35_5_0" index="0" speed="8.00" length="4.07" shape="857.20,-334.40 853.35,-334.95 853.20,-335.04"/>
    </edge>
    <edge id=":J35_13" function="internal">
        <lane id=":J35_13_0" index="0" speed="8.00" length="10.13" shape="853.20,-335.04 850.60,-336.60 848.95,-339.35 848.40,-343.20"/>
    </edge>
    <edge id=":J35_6" function="internal">
        <lane id=":J35_6_0" index="0" speed="6.51" length="9.03" shape="851.60,-343.20 851.95,-340.75 853.00,-339.00 854.75,-337.95 857.20,-337.60"/>
    </edge>
    <edge id=":J35_7" function="internal">
        <lane id=":J35_7_0" index="0" speed="13.89" length="14.40" shape="851.60,-343.20 851.60,-328.80"/>
    </edge>
    <edge id=":J35_8" function="internal">
        <lane id=":J35_8_0" index="0" speed="8.00" length="4.07" shape="851.60,-343.20 851.05,-339.35 850.96,-339.20"/>
    </edge>
    <edge id=":J35_14" function="internal">
        <lane id=":J35_14_0" index="0" speed="8.00" length="10.13" shape="850.96,-339.20 849.40,-336.60 846.65,-334.95 842.80,-334.40"/>
    </edge>
    <edge id=":J35_9" function="internal">
        <lane id=":J35_9_0" index="0" speed="6.51" length="9.03" shape="842.80,-337.60 845.25,-337.95 847.00,-339.00 848.05,-340.75 848.40,-343.20"/>
    </edge>
    <edge id=":J35_10" function="internal">
        <lane id=":J35_10_0" index="0" speed="13.89" length="14.40" shape="842.80,-337.60 857.20,-337.60"/>
    </edge>
    <edge id=":J35_11" function="internal">
        <lane id=":J35_11_0" index="0" speed="8.00" length="4.07" shape="842.80,-337.60 846.65,-337.05 846.80,-336.96"/>
    </edge>
    <edge id=":J35_15" function="internal">
        <lane id=":J35_15_0" index="0" speed="8.00" length="10.13" shape="846.80,-336.96 849.40,-335.40 851.05,-332.65 851.60,-328.80"/>
    </edge>
    <edge id=":J37_0" function="internal">
        <lane id=":J37_0_0" index="0" speed="4.23" length="1.27" shape="123.19,-202.06 123.46,-201.81 123.68,-201.67 123.94,-201.61 124.31,-201.60"/>
    </edge>
    <edge id=":J38_0" function="internal">
        <lane id=":J38_0_0" index="0" speed="13.89" length="0.10" shape="-186.00,-683.80 -186.00,-683.80"/>
        <lane id=":J38_0_1" index="1" speed="13.89" length="0.10" shape="-186.00,-680.60 -186.00,-680.60"/>
    </edge>
    <edge id=":J39_0" function="internal">
        <lane id=":J39_0_0" index="0" speed="13.89" length="0.10" shape="-10.20,-919.00 -10.20,-919.00"/>
        <lane id=":J39_0_1" index="1" speed="13.89" length="0.10" shape="-13.40,-919.00 -13.40,-919.00"/>
    </edge>
    <edge id=":J40_0" function="internal">
        <lane id=":J40_0_0" index="0" speed="6.51" length="9.03" shape="197.60,-210.40 197.95,-207.95 199.00,-206.20 200.75,-205.15 203.20,-204.80"/>
    </edge>
    <edge id=":J40_1" function="internal">
        <lane id=":J40_1_0" index="0" speed="13.89" length="11.20" shape="192.00,-201.60 203.20,-201.60"/>
    </edge>
    <edge id=":J41_0" function="internal">
        <lane id=":J41_0_0" index="0" speed="6.51" length="9.03" shape="511.60,-210.40 511.95,-207.95 513.00,-206.20 514.75,-205.15 517.20,-204.80"/>
    </edge>
    <edge id=":J41_1" function="internal">
        <lane id=":J41_1_0" index="0" speed="13.89" length="11.20" shape="506.00,-204.80 517.20,-204.80"/>
        <lane id=":J41_1_1" index="1" speed="13.89" length="11.20" shape="506.00,-201.60 517.20,-201.60"/>
    </edge>
    <edge id=":J42_0" function="internal">
        <lane id=":J42_0_0" index="0" speed="6.51" length="9.03" shape="851.60,-210.40 851.95,-207.95 853.00,-206.20 854.75,-205.15 857.20,-204.80"/>
    </edge>
    <edge id=":J42_1" function="internal">
        <lane id=":J42_1_0" index="0" speed="6.51" length="9.03" shape="842.80,-204.80 845.25,-205.15 847.00,-206.20 848.05,-207.95 848.40,-210.40"/>
    </edge>
    <edge id=":J42_2" function="internal">
        <lane id=":J42_2_0" index="0" speed="13.89" length="14.40" shape="842.80,-204.80 857.20,-204.80"/>
        <lane id=":J42_2_1" index="1" speed="13.89" length="14.40" shape="842.80,-201.60 857.20,-201.60"/>
    </edge>
    <edge id=":J43_0" function="internal">
        <lane id=":J43_0_0" index="0" speed="5.75" length="9.01" shape="1179.92,-210.52 1179.21,-208.02 1179.63,-206.23 1181.17,-205.16 1183.84,-204.80"/>
    </edge>
    <edge id=":J43_1" function="internal">
        <lane id=":J43_1_0" index="0" speed="13.89" length="16.18" shape="1179.92,-210.52 1177.79,-206.36 1176.16,-203.48 1175.17,-200.48 1174.93,-195.95"/>
        <lane id=":J43_1_1" index="1" speed="13.89" length="16.18" shape="1176.83,-211.44 1174.59,-207.00 1172.93,-203.91 1171.95,-200.69 1171.74,-195.86"/>
    </edge>
    <edge id=":J43_3" function="internal">
        <lane id=":J43_3_0" index="0" speed="13.89" length="24.26" shape="1159.58,-204.80 1183.84,-204.80"/>
        <lane id=":J43_3_1" index="1" speed="13.89" length="24.26" shape="1159.58,-201.60 1183.84,-201.60"/>
    </edge>
    <edge id=":J43_5" function="internal">
        <lane id=":J43_5_0" index="0" speed="8.24" length="14.75" shape="1159.58,-201.60 1164.83,-201.24 1168.60,-200.16 1170.91,-198.37 1171.74,-195.86"/>
    </edge>
    <edge id=":J43_6" function="internal">
        <lane id=":J43_6_0" index="0" speed="13.89" length="18.16" shape="1164.85,-195.64 1165.44,-201.13 1166.22,-204.84 1167.36,-208.48 1169.00,-213.78"/>
        <lane id=":J43_6_1" index="1" speed="13.89" length="18.16" shape="1168.07,-195.74 1168.63,-200.93 1169.40,-204.42 1170.50,-207.86 1172.07,-212.86"/>
    </edge>
    <edge id=":J43_8" function="internal">
        <lane id=":J43_8_0" index="0" speed="9.22" length="2.81" shape="1168.07,-195.74 1169.22,-198.31"/>
    </edge>
    <edge id=":J43_9" function="internal">
        <lane id=":J43_9_0" index="0" speed="9.22" length="15.26" shape="1169.22,-198.31 1172.24,-200.14 1177.11,-201.23 1183.84,-201.60"/>
    </edge>
    <edge id=":J44_0" function="internal">
        <lane id=":J44_0_0" index="0" speed="6.58" length="7.45" shape="1230.29,-715.34 1231.32,-717.03 1231.69,-718.74 1231.40,-720.46 1230.44,-722.19"/>
    </edge>
    <edge id=":J44_1" function="internal">
        <lane id=":J44_1_0" index="0" speed="11.62" length="9.96" shape="1230.29,-715.34 1232.36,-717.50 1233.97,-718.99 1235.02,-720.67 1235.40,-723.43"/>
    </edge>
    <edge id=":J44_2" function="internal">
        <lane id=":J44_2_0" index="0" speed="13.89" length="9.85" shape="1232.77,-713.33 1234.63,-715.56 1236.09,-716.96 1237.81,-718.01 1240.47,-719.17"/>
    </edge>
    <edge id=":J46_0" function="internal">
        <lane id=":J46_0_0" index="0" speed="4.08" length="1.50" shape="1118.67,-873.75 1118.41,-874.03 1118.11,-874.24 1117.77,-874.36 1117.38,-874.40"/>
    </edge>
    <edge id=":J47_0" function="internal">
        <lane id=":J47_0_0" index="0" speed="3.90" length="2.58" shape="199.20,-874.40 198.50,-874.30 198.00,-874.00 197.70,-873.50 197.60,-872.80"/>
    </edge>
    <edge id=":J5_0" function="internal">
        <lane id=":J5_0_0" index="0" speed="13.89" length="41.13" shape="1319.83,-752.10 1322.17,-755.59 1322.87,-763.45 1321.91,-775.66 1319.30,-792.24"/>
    </edge>
    <edge id=":J5_1" function="internal">
        <lane id=":J5_1_0" index="0" speed="13.89" length="42.33" shape="1319.83,-752.10 1322.62,-755.65 1324.61,-763.68 1325.80,-776.19 1326.20,-793.16"/>
    </edge>
    <edge id=":J5_2" function="internal">
        <lane id=":J5_2_0" index="0" speed="13.89" length="44.73" shape="1324.06,-748.31 1325.24,-757.93 1324.97,-770.48 1323.85,-783.06 1322.44,-792.82"/>
    </edge>
    <edge id=":J5_3" function="internal">
        <lane id=":J5_3_0" index="0" speed="13.89" length="45.43" shape="1324.06,-748.31 1325.57,-757.96 1326.18,-770.59 1326.26,-783.28 1326.20,-793.16"/>
        <lane id=":J5_3_1" index="1" speed="13.89" length="45.43" shape="1327.13,-747.42 1328.66,-757.21 1329.31,-770.14 1329.44,-783.14 1329.40,-793.16"/>
    </edge>
    <edge id=":J8_0" function="internal">
        <lane id=":J8_0_0" index="0" speed="8.69" length="1.34" shape="1419.80,-752.27 1419.79,-751.67 1419.75,-751.26 1419.62,-750.87 1419.39,-750.32"/>
        <lane id=":J8_0_1" index="1" speed="13.89" length="1.34" shape="1416.60,-752.27 1416.60,-752.07 1416.58,-751.93 1416.54,-751.80 1416.46,-751.62"/>
    </edge>
    <edge id=":J9_0" function="internal">
        <lane id=":J9_0_0" index="0" speed="13.89" length="0.67" shape="1179.24,-63.67 1179.25,-63.37 1179.24,-63.16 1179.22,-62.96 1179.17,-62.66"/>
        <lane id=":J9_0_1" index="1" speed="13.89" length="0.67" shape="1176.04,-63.56 1176.04,-63.46 1176.04,-63.39 1176.03,-63.33 1176.02,-63.23"/>
    </edge>

    <edge id="-E19" from="J29" to="J22" priority="-1">
        <lane id="-E19_0" index="0" speed="13.89" length="190.20" shape="188.80,-515.40 -1.40,-515.40"/>
    </edge>
    <edge id="-E20" from="J30" to="J29" priority="-1">
        <lane id="-E20_0" index="0" speed="13.89" length="299.60" shape="502.80,-515.40 203.20,-515.40"/>
    </edge>
    <edge id="-E21" from="J31" to="J30" priority="-1">
        <lane id="-E21_0" index="0" speed="13.89" length="325.60" shape="842.80,-515.40 517.20,-515.40"/>
    </edge>
    <edge id="-E22" from="J32" to="J31" priority="-1">
        <lane id="-E22_0" index="0" speed="13.89" length="334.80" shape="1192.00,-515.40 857.20,-515.40"/>
    </edge>
    <edge id="-E23" from="J33" to="J23" priority="-1">
        <lane id="-E23_0" index="0" speed="13.89" length="193.40" shape="192.00,-334.40 -1.40,-334.40"/>
    </edge>
    <edge id="-E24" from="J34" to="J33" priority="-1">
        <lane id="-E24_0" index="0" speed="13.89" length="299.60" shape="502.80,-334.40 203.20,-334.40"/>
    </edge>
    <edge id="-E25" from="J35" to="J34" priority="-1">
        <lane id="-E25_0" index="0" speed="13.89" length="325.60" shape="842.80,-334.40 517.20,-334.40"/>
    </edge>
    <edge id="-E26" from="J36" to="J35" priority="-1">