<?xml version='1.0' encoding='UTF-8'?>
<net xmlns:xsi="http://www.w3.org/2001/XMLSchema-instance" version="1.20" junctionCornerDetail="5" limitTurnSpeed="5.50" xsi:noNamespaceSchemaLocation="http://sumo.dlr.de/xsd/net_file.xsd">

    <location netOffset="-474710.94,-5552698.40" convBoundary="0.00,0.00,3722.95,1638.65" origBoundary="8.645796,50.112682,8.706789,50.143701" projParameter="+proj=utm +zone=32 +ellps=WGS84 +datum=WGS84 +units=m +no_defs" />

    <type id="highway.living_street" priority="2" numLanes="1" speed="2.78" disallow="tram rail_urban rail rail_electric rail_fast ship container cable_car subway aircraft wheelchair scooter drone" oneway="0" />
    <type id="highway.motorway" priority="14" numLanes="2" speed="39.44" allow="private emergency authority army vip passenger hov taxi bus coach delivery truck trailer motorcycle evehicle custom1 custom2" oneway="1" />
    <type id="highway.motorway_link" priority="9" numLanes="1" speed="22.22" allow="private emergency authority army vip passenger hov taxi bus coach delivery truck trailer motorcycle evehicle custom1 custom2" oneway="1" />
    <type id="highway.primary" priority="12" numLanes="2" speed="27.78" disallow="tram rail_urban rail rail_electric rail_fast ship container cable_car subway aircraft wheelchair scooter drone" oneway="0" />
    <type id="highway.primary_link" priority="7" numLanes="1" speed="22.22" disallow="tram rail_urban rail rail_electric rail_fast ship container cable_car subway aircraft wheelchair scooter drone" oneway="0" />
    <type id="highway.residential" priority="3" numLanes="1" speed="13.89" disallow="tram rail_urban rail rail_electric rail_fast ship container cable_car subway aircraft wheelchair scooter drone" oneway="0" />
    <type id="highway.secondary" priority="11" numLanes="1" speed="27.78" disallow="tram rail_urban rail rail_electric rail_fast ship container cable_car subway aircraft wheelchair scooter drone" oneway="0" />
    <type id="highway.secondary_link" priority="6" numLanes="1" speed="22.22" disallow="tram rail_urban rail rail_electric rail_fast ship container cable_car subway aircraft wheelchair scooter drone" oneway="0" />
    <type id="highway.tertiary" priority="10" numLanes="1" speed="22.22" disallow="tram rail_urban rail rail_electric rail_fast ship container cable_car subway aircraft wheelchair scooter drone" oneway="0" />
    <type id="highway.trunk" priority="13" numLanes="2" speed="27.78" disallow="pedestrian bicycle tram rail_urban rail rail_electric rail_fast ship container cable_car subway aircraft wheelchair scooter drone" oneway="0" />
    <type id="highway.trunk_link" priority="8" numLanes="1" speed="22.22" disallow="pedestrian bicycle tram rail_urban rail rail_electric rail_fast ship container cable_car subway aircraft wheelchair scooter drone" oneway="0" />
    <type id="highway.unclassified" priority="4" numLanes="1" speed="13.89" disallow="tram rail_urban rail rail_electric rail_fast ship container cable_car subway aircraft wheelchair scooter drone" oneway="0" />

    <edge id=":10229262005_0" function="internal">
        <lane id=":10229262005_0_0" index="0" disallow="tram rail_urban rail rail_electric rail_fast ship container cable_car subway aircraft wheelchair scooter drone" speed="2.78" length="0.29" shape="1754.39,792.13 1754.36,792.42" />
    </edge>
    <edge id=":10229262005_1" function="internal">
        <lane id=":10229262005_1_0" index="0" disallow="tram rail_urban rail rail_electric rail_fast ship container cable_car subway aircraft wheelchair scooter drone" speed="2.78" length="0.31" shape="1751.17,792.10 1751.20,791.79" />
    </edge>
    <edge id=":10300467737_0" function="internal">
        <lane id=":10300467737_0_0" index="0" disallow="tram rail_urban rail rail_electric rail_fast ship container cable_car subway aircraft wheelchair scooter drone" speed="8.33" length="0.30" shape="2535.66,1169.24 2535.96,1169.28" />
    </edge>
    <edge id=":10301193367_0" function="internal">
        <lane id=":10301193367_0_0" index="0" disallow="tram rail_urban rail rail_electric rail_fast ship container cable_car subway aircraft wheelchair scooter drone" speed="3.65" length="4.67" shape="2549.26,326.60 2548.23,327.61 2547.36,327.84 2546.66,327.28 2546.12,325.94" />
    </edge>
    <edge id=":10302560850_0" function="internal">
        <lane id=":10302560850_0_0" index="0" disallow="tram rail_urban rail rail_electric rail_fast ship container cable_car subway aircraft wheelchair scooter drone" speed="13.89" length="0.30" shape="908.21,1130.93 908.51,1130.95" />
        <lane id=":10302560850_0_1" index="1" disallow="tram rail_urban rail rail_electric rail_fast ship container cable_car subway aircraft wheelchair scooter drone" speed="13.89" length="0.30" shape="908.03,1134.13 908.33,1134.15" />
    </edge>
    <edge id=":10302560854_0" function="internal">
        <lane id=":10302560854_0_0" index="0" disallow="tram rail_urban rail rail_electric rail_fast ship container cable_car subway aircraft wheelchair scooter drone" speed="13.89" length="0.29" shape="955.24,1135.05 955.54,1135.07" />
    </edge>
    <edge id=":10310802909_0" function="internal">
        <lane id=":10310802909_0_0" index="0" disallow="tram rail_urban rail rail_electric rail_fast ship container cable_car subway aircraft wheelchair scooter drone" speed="13.89" length="4.88" shape="3421.76,187.32 3425.53,190.41" />
    </edge>
    <edge id=":10310802911_0" function="internal">
        <lane id=":10310802911_0_0" index="0" disallow="tram rail_urban rail rail_electric rail_fast ship container cable_car subway aircraft wheelchair scooter drone" speed="13.89" length="0.55" shape="3429.24,183.83 3428.70,183.75" />
        <lane id=":10310802911_0_1" index="1" disallow="tram rail_urban rail rail_electric rail_fast ship container cable_car subway aircraft wheelchair scooter drone" speed="13.89" length="0.55" shape="3428.82,187.00 3428.28,186.93" />
    </edge>
    <edge id=":10310802913_0" function="internal">
        <lane id=":10310802913_0_0" index="0" disallow="tram rail_urban rail rail_electric rail_fast ship container cable_car subway aircraft wheelchair scooter drone" speed="8.33" length="0.30" shape="3615.70,236.01 3615.98,236.13" />
    </edge>
    <edge id=":10313007342_0" function="internal">
        <lane id=":10313007342_0_0" index="0" disallow="tram rail_urban rail rail_electric rail_fast ship container cable_car subway aircraft wheelchair scooter drone" speed="8.33" length="0.30" shape="371.27,397.26 371.07,397.03" />
    </edge>
    <edge id=":10313007342_1" function="internal">
        <lane id=":10313007342_1_0" index="0" disallow="tram rail_urban rail rail_electric rail_fast ship container cable_car subway aircraft wheelchair scooter drone" speed="8.33" length="0.30" shape="373.54,394.98 373.73,395.21" />
    </edge>
    <edge id=":10313007425_0" function="internal">
        <lane id=":10313007425_0_0" index="0" disallow="tram rail_urban rail rail_electric rail_fast ship container cable_car subway aircraft wheelchair scooter drone" speed="8.33" length="4.34" width="6.00" shape="333.33,186.79 337.29,188.59" />
    </edge>
    <edge id=":10313784968_0" function="internal">
        <lane id=":10313784968_0_0" index="0" disallow="tram rail_urban rail rail_electric rail_fast ship container cable_car subway aircraft wheelchair scooter drone" speed="2.78" length="0.10" shape="307.86,468.43 307.86,468.43" />
    </edge>
    <edge id=":10313784968_1" function="internal">
        <lane id=":10313784968_1_0" index="0" disallow="tram rail_urban rail rail_electric rail_fast ship container cable_car subway aircraft wheelchair scooter drone" speed="2.78" length="0.10" shape="310.46,466.57 310.46,466.57" />
    </edge>
    <edge id=":10313825835_0" function="internal">
        <lane id=":10313825835_0_0" index="0" disallow="tram rail_urban rail rail_electric rail_fast ship container cable_car subway aircraft wheelchair scooter drone" speed="8.33" length="0.10" shape="370.26,411.23 370.26,411.23" />
    </edge>
    <edge id=":10313825835_1" function="internal">
        <lane id=":10313825835_1_0" index="0" disallow="tram rail_urban rail rail_electric rail_fast ship container cable_car subway aircraft wheelchair scooter drone" speed="8.33" length="0.10" shape="368.42,408.61 368.42,408.61" />
    </edge>
    <edge id=":10313825837_0" function="internal">
        <lane id=":10313825837_0_0" index="0" disallow="tram rail_urban rail rail_electric rail_fast ship container cable_car subway aircraft wheelchair scooter drone" speed="8.33" length="0.30" shape="389.61,398.09 389.36,398.25" />
    </edge>
    <edge id=":10313825837_1" function="internal">
        <lane id=":10313825837_1_0" index="0" disallow="tram rail_urban rail rail_electric rail_fast ship container cable_car subway aircraft wheelchair scooter drone" speed="8.33" length="0.30" shape="387.61,395.57 387.86,395.41" />
    </edge>
    <edge id=":10313825840_0" function="internal">
        <lane id=":10313825840_0_0" index="0" disallow="tram rail_urban rail rail_electric rail_fast ship container cable_car subway aircraft wheelchair scooter drone" speed="8.33" length="0.10" shape="482.24,328.08 482.24,328.08" />
    </edge>
    <edge id=":10313825840_1" function="internal">
        <lane id=":10313825840_1_0" index="0" disallow="tram rail_urban rail rail_electric rail_fast ship container cable_car subway aircraft wheelchair scooter drone" speed="8.33" length="0.10" shape="480.30,325.54 480.30,325.54" />
    </edge>
    <edge id=":10313825843_0" function="internal">
        <lane id=":10313825843_0_0" index="0" disallow="tram rail_urban rail rail_electric rail_fast ship container cable_car subway aircraft wheelchair scooter drone" speed="8.33" length="0.30" shape="495.36,318.02 495.12,318.20" />
    </edge>
    <edge id=":10313825843_1" function="internal">
        <lane id=":10313825843_1_0" index="0" disallow="tram rail_urban rail rail_electric rail_fast ship container cable_car subway aircraft wheelchair scooter drone" speed="8.33" length="0.30" shape="493.16,315.66 493.40,315.48" />
    </edge>
    <edge id=":10313825845_0" function="internal">
        <lane id=":10313825845_0_0" index="0" disallow="tram rail_urban rail rail_electric rail_fast ship container cable_car subway aircraft wheelchair scooter drone" speed="8.33" length="0.10" shape="517.79,300.74 517.79,300.74" />
    </edge>
    <edge id=":10313825845_1" function="internal">
        <lane id=":10313825845_1_0" index="0" disallow="tram rail_urban rail rail_electric rail_fast ship container cable_car subway aircraft wheelchair scooter drone" speed="8.33" length="0.10" shape="515.83,298.20 515.83,298.20" />
    </edge>
    <edge id=":10313825877_0" function="internal">
        <lane id=":10313825877_0_0" index="0" disallow="tram rail_urban rail rail_electric rail_fast ship container cable_car subway aircraft wheelchair scooter drone" speed="8.33" length="0.30" shape="350.46,196.66 350.19,196.53" />
    </edge>
    <edge id=":10313825877_1" function="internal">
        <lane id=":10313825877_1_0" index="0" disallow="tram rail_urban rail rail_electric rail_fast ship container cable_car subway aircraft wheelchair scooter drone" speed="8.33" length="0.30" shape="351.60,193.66 351.87,193.79" />
    </edge>
    <edge id=":10313825878_0" function="internal">
        <lane id=":10313825878_0_0" index="0" disallow="tram rail_urban rail rail_electric rail_fast ship container cable_car subway aircraft wheelchair scooter drone" speed="8.33" length="0.30" shape="349.30,185.48 349.08,185.68" />
    </edge>
    <edge id=":10313825878_1" function="internal">
        <lane id=":10313825878_1_0" index="0" disallow="tram rail_urban rail rail_electric rail_fast ship container cable_car subway aircraft wheelchair scooter drone" speed="8.33" length="0.30" shape="346.96,183.28 347.18,183.08" />
    </edge>
    <edge id=":10313825883_0" function="internal">
        <lane id=":10313825883_0_0" index="0" disallow="tram rail_urban rail rail_electric rail_fast ship container cable_car subway aircraft wheelchair scooter drone" speed="8.33" length="0.10" shape="584.81,252.48 584.81,252.48" />
    </edge>
    <edge id=":10313825883_1" function="internal">
        <lane id=":10313825883_1_0" index="0" disallow="tram rail_urban rail rail_electric rail_fast ship container cable_car subway aircraft wheelchair scooter drone" speed="8.33" length="0.10" shape="582.89,249.92 582.89,249.92" />
    </edge>
    <edge id=":10313825885_0" function="internal">
        <lane id=":10313825885_0_0" index="0" disallow="tram rail_urban rail rail_electric rail_fast ship container cable_car subway aircraft wheelchair scooter drone" speed="8.33" length="0.30" shape="565.20,266.66 564.95,266.83" />
    </edge>
    <edge id=":10313825885_1" function="internal">
        <lane id=":10313825885_1_0" index="0" disallow="tram rail_urban rail rail_electric rail_fast ship container cable_car subway aircraft wheelchair scooter drone" speed="8.33" length="0.30" shape="563.10,264.22 563.35,264.05" />
    </edge>
    <edge id=":10313825887_0" function="internal">
        <lane id=":10313825887_0_0" index="0" disallow="tram rail_urban rail rail_electric rail_fast ship container cable_car subway aircraft wheelchair scooter drone" speed="8.33" length="0.10" shape="536.83,286.73 536.83,286.73" />
    </edge>
    <edge id=":10313825887_1" function="internal">
        <lane id=":10313825887_1_0" index="0" disallow="tram rail_urban rail rail_electric rail_fast ship container cable_car subway aircraft wheelchair scooter drone" speed="8.33" length="0.10" shape="534.99,284.11 534.99,284.11" />
    </edge>
    <edge id=":10313825889_0" function="internal">
        <lane id=":10313825889_0_0" index="0" disallow="tram rail_urban rail rail_electric rail_fast ship container cable_car subway aircraft wheelchair scooter drone" speed="8.33" length="0.30" shape="707.39,166.67 707.09,166.69" />
    </edge>
    <edge id=":10313825889_1" function="internal">
        <lane id=":10313825889_1_0" index="0" disallow="tram rail_urban rail rail_electric rail_fast ship container cable_car subway aircraft wheelchair scooter drone" speed="8.33" length="0.30" shape="706.89,163.49 707.19,163.47" />
    </edge>
    <edge id=":10751453115_0" function="internal">
        <lane id=":10751453115_0_0" index="0" disallow="tram rail_urban rail rail_electric rail_fast ship container cable_car subway aircraft wheelchair scooter drone" speed="13.89" length="0.30" shape="3226.98,424.60 3226.73,424.76" />
        <lane id=":10751453115_0_1" index="1" disallow="tram rail_urban rail rail_electric rail_fast ship container cable_car subway aircraft wheelchair scooter drone" speed="13.89" length="0.30" shape="3225.33,421.86 3225.08,422.02" />
    </edge>
    <edge id=":10751453116_0" function="internal">
        <lane id=":10751453116_0_0" index="0" disallow="tram rail_urban rail rail_electric rail_fast ship container cable_car subway aircraft wheelchair scooter drone" speed="13.89" length="0.30" shape="3210.29,434.64 3210.03,434.79" />
        <lane id=":10751453116_0_1" index="1" disallow="tram rail_urban rail rail_electric rail_fast ship container cable_car subway aircraft wheelchair scooter drone" speed="13.89" length="0.30" shape="3208.65,431.89 3208.39,432.04" />
    </edge>
    <edge id=":10885609890_0" function="internal">
        <lane id=":10885609890_0_0" index="0" disallow="tram rail_urban rail rail_electric rail_fast ship container cable_car subway aircraft wheelchair scooter drone" speed="8.33" length="0.14" shape="1774.31,366.05 1774.27,366.03 1774.25,366.02 1774.22,366.01 1774.18,365.99" />
    </edge>
    <edge id=":10885609890_1" function="internal">
        <lane id=":10885609890_1_0" index="0" disallow="tram rail_urban rail rail_electric rail_fast ship container cable_car subway aircraft wheelchair scooter drone" speed="8.33" length="0.42" shape="1775.38,363.02 1775.49,363.07 1775.57,363.10 1775.65,363.14 1775.76,363.20" />
    </edge>
    <edge id=":10914737754_0" function="internal">
        <lane id=":10914737754_0_0" index="0" disallow="tram rail_urban rail rail_electric rail_fast ship container cable_car subway aircraft wheelchair scooter drone" speed="13.89" length="0.30" shape="1814.63,963.97 1814.68,963.67" />
        <lane id=":10914737754_0_1" index="1" disallow="tram rail_urban rail rail_electric rail_fast ship container cable_car subway aircraft wheelchair scooter drone" speed="13.89" length="0.30" shape="1817.81,964.40 1817.85,964.11" />
    </edge>
    <edge id=":10914756699_0" function="internal">
        <lane id=":10914756699_0_0" index="0" disallow="tram rail_urban rail rail_electric rail_fast ship container cable_car subway aircraft wheelchair scooter drone" speed="13.89" length="0.30" shape="1928.80,151.64 1928.90,151.36" />
        <lane id=":10914756699_0_1" index="1" disallow="tram rail_urban rail rail_electric rail_fast ship container cable_car subway aircraft wheelchair scooter drone" speed="13.89" length="0.30" shape="1931.82,152.70 1931.92,152.42" />
    </edge>
    <edge id=":11073401027_0" function="internal">
        <lane id=":11073401027_0_0" index="0" disallow="tram rail_urban rail rail_electric rail_fast ship container cable_car subway aircraft wheelchair scooter drone" speed="13.89" length="0.10" width="3.35" shape="2105.96,963.29 2105.96,963.29" />
    </edge>
    <edge id=":11073401027_1" function="internal">
        <lane id=":11073401027_1_0" index="0" disallow="tram rail_urban rail rail_electric rail_fast ship container cable_car subway aircraft wheelchair scooter drone" speed="13.89" length="0.10" width="3.35" shape="2102.70,962.57 2102.70,962.57" />
    </edge>
    <edge id=":11073401028_0" function="internal">
        <lane id=":11073401028_0_0" index="0" disallow="tram rail_urban rail rail_electric rail_fast ship container cable_car subway aircraft wheelchair scooter drone" speed="13.89" length="0.30" width="3.35" shape="2157.73,721.67 2157.67,721.96" />
    </edge>
    <edge id=":11073401028_1" function="internal">
        <lane id=":11073401028_1_0" index="0" disallow="tram rail_urban rail rail_electric rail_fast ship container cable_car subway aircraft wheelchair scooter drone" speed="13.89" length="0.30" width="3.35" shape="2154.39,721.27 2154.45,720.98" />
    </edge>
    <edge id=":11073401030_0" function="internal">
        <lane id=":11073401030_0_0" index="0" disallow="tram rail_urban rail rail_electric rail_fast ship container cable_car subway aircraft wheelchair scooter drone" speed="13.89" length="0.30" width="3.35" shape="2092.69,1002.80 2092.57,1003.08" />
    </edge>
    <edge id=":11073401030_1" function="internal">
        <lane id=":11073401030_1_0" index="0" disallow="tram rail_urban rail rail_electric rail_fast ship container cable_car subway aircraft wheelchair scooter drone" speed="13.89" length="0.30" width="3.35" shape="2089.47,1001.82 2089.58,1001.54" />
    </edge>
    <edge id=":1111667440_0" function="internal">
        <lane id=":1111667440_0_0" index="0" disallow="tram rail_urban rail rail_electric rail_fast ship container cable_car subway aircraft wheelchair scooter drone" speed="8.33" length="0.10" shape="3502.31,266.16 3502.31,266.16" />
    </edge>
    <edge id=":1111667444_0" function="internal">
        <lane id=":1111667444_0_0" index="0" disallow="tram rail_urban rail rail_electric rail_fast ship container cable_car subway aircraft wheelchair scooter drone" speed="8.33" length="0.10" shape="3479.90,273.18 3479.90,273.18" />
    </edge>
    <edge id=":11163038265_0" function="internal">
        <lane id=":11163038265_0_0" index="0" disallow="tram rail_urban rail rail_electric rail_fast ship container cable_car subway aircraft wheelchair scooter drone" speed="8.33" length="0.10" shape="3544.76,665.43 3544.76,665.43" />
    </edge>
    <edge id=":11188399934_0" function="internal">
        <lane id=":11188399934_0_0" index="0" disallow="tram rail_urban rail rail_electric rail_fast ship container cable_car subway aircraft wheelchair scooter drone" speed="13.89" length="0.20" shape="2719.49,342.62 2719.48,342.68 2719.47,342.72 2719.47,342.76 2719.46,342.82" />
    </edge>
    <edge id=":1131470688_0" function="internal">
        <lane id=":1131470688_0_0" index="0" allow="private emergency authority army vip passenger hov taxi bus coach delivery truck trailer motorcycle evehicle custom1 custom2" speed="19.45" length="0.30" shape="638.02,653.09 638.32,653.04" />
        <lane id=":1131470688_0_1" index="1" allow="private emergency authority army vip passenger hov taxi bus coach delivery truck trailer motorcycle evehicle custom1 custom2" speed="19.45" length="0.30" shape="638.57,656.24 638.85,656.19" />
    </edge>
    <edge id=":11465300464_0" function="internal">
        <lane id=":11465300464_0_0" index="0" disallow="tram rail_urban rail rail_electric rail_fast ship container cable_car subway aircraft wheelchair scooter drone" speed="1.39" length="4.67" shape="2254.14,827.19 2255.16,828.22 2255.39,829.08 2254.84,829.78 2253.50,830.33" />
    </edge>
    <edge id=":11465300467_0" function="internal">
        <lane id=":11465300467_0_0" index="0" disallow="tram rail_urban rail rail_electric rail_fast ship container cable_car subway aircraft wheelchair scooter drone" speed="6.58" length="9.16" width="3.35" shape="2146.41,803.21 2143.88,803.07 2141.90,803.74 2140.49,805.24 2139.63,807.56" />
    </edge>
    <edge id=":11465300467_1" function="internal">
        <lane id=":11465300467_1_0" index="0" disallow="tram rail_urban rail rail_electric rail_fast ship container cable_car subway aircraft wheelchair scooter drone" speed="7.64" length="14.42" width="3.35" shape="2146.41,803.21 2142.62,801.90 2140.18,799.72 2139.08,796.68 2139.32,792.78" />
    </edge>
    <edge id=":11465300467_2" function="internal">
        <lane id=":11465300467_2_0" index="0" disallow="tram rail_urban rail rail_electric rail_fast ship container cable_car subway aircraft wheelchair scooter drone" speed="1.39" length="4.67" shape="2146.41,803.21 2145.39,802.20 2145.15,801.33 2145.70,800.63 2147.03,800.07" />
    </edge>
    <edge id=":11465300467_3" function="internal">
        <lane id=":11465300467_3_0" index="0" disallow="tram rail_urban rail rail_electric rail_fast ship container cable_car subway aircraft wheelchair scooter drone" speed="6.52" length="9.09" shape="2142.60,793.47 2142.44,795.94 2143.13,797.87 2144.66,799.25 2147.03,800.07" />
    </edge>
    <edge id=":11465300467_4" function="internal">
        <lane id=":11465300467_4_0" index="0" disallow="tram rail_urban rail rail_electric rail_fast ship container cable_car subway aircraft wheelchair scooter drone" speed="13.89" length="14.40" width="3.35" shape="2142.60,793.47 2139.63,807.56" />
    </edge>
    <edge id=":11465300467_5" function="internal">
        <lane id=":11465300467_5_0" index="0" disallow="tram rail_urban rail rail_electric rail_fast ship container cable_car subway aircraft wheelchair scooter drone" speed="3.73" length="1.51" width="3.35" shape="2142.60,793.47 2141.52,794.53" />
    </edge>
    <edge id=":11465300467_9" function="internal">
        <lane id=":11465300467_9_0" index="0" disallow="tram rail_urban rail rail_electric rail_fast ship container cable_car subway aircraft wheelchair scooter drone" speed="3.73" length="3.38" width="3.35" shape="2141.52,794.53 2140.62,794.76 2139.88,794.18 2139.32,792.78" />
    </edge>
    <edge id=":11465300467_6" function="internal">
        <lane id=":11465300467_6_0" index="0" disallow="tram rail_urban rail rail_electric rail_fast ship container cable_car subway aircraft wheelchair scooter drone" speed="13.89" length="14.40" width="3.35" shape="2136.36,806.87 2139.32,792.78" />
    </edge>
    <edge id=":11465300467_7" function="internal">
        <lane id=":11465300467_7_0" index="0" disallow="tram rail_urban rail rail_electric rail_fast ship container cable_car subway aircraft wheelchair scooter drone" speed="7.64" length="4.16" shape="2136.36,806.87 2137.70,803.24 2137.89,803.03" />
    </edge>
    <edge id=":11465300467_8" function="internal">
        <lane id=":11465300467_8_0" index="0" disallow="tram rail_urban rail rail_electric rail_fast ship container cable_car subway aircraft wheelchair scooter drone" speed="3.73" length="1.51" width="3.35" shape="2136.36,806.87 2137.43,805.81" />
    </edge>
    <edge id=":11465300467_10" function="internal">
        <lane id=":11465300467_10_0" index="0" disallow="tram rail_urban rail rail_electric rail_fast ship container cable_car subway aircraft wheelchair scooter drone" speed="7.64" length="10.23" shape="2137.89,803.03 2139.92,800.90 2143.04,799.84 2147.03,800.07" />
    </edge>
    <edge id=":11465300467_11" function="internal">
        <lane id=":11465300467_11_0" index="0" disallow="tram rail_urban rail rail_electric rail_fast ship container cable_car subway aircraft wheelchair scooter drone" speed="3.73" length="3.38" width="3.35" shape="2137.43,805.81 2138.34,805.58 2139.07,806.16 2139.63,807.56" />
    </edge>
    <edge id=":11465300468_0" function="internal">
        <lane id=":11465300468_0_0" index="0" disallow="tram rail_urban rail rail_electric rail_fast ship container cable_car subway aircraft wheelchair scooter drone" speed="1.39" length="0.10" shape="2148.61,803.65 2148.63,803.65" />
    </edge>
    <edge id=":11465300468_1" function="internal">
        <lane id=":11465300468_1_0" index="0" disallow="tram rail_urban rail rail_electric rail_fast ship container cable_car subway aircraft wheelchair scooter drone" speed="1.39" length="0.10" shape="2149.25,800.51 2149.24,800.51" />
    </edge>
    <edge id=":11556407763_0" function="internal">
        <lane id=":11556407763_0_0" index="0" disallow="tram rail_urban rail rail_electric rail_fast ship container cable_car subway aircraft wheelchair scooter drone" speed="8.33" length="0.10" shape="2464.72,1146.85 2464.72,1146.85" />
    </edge>
    <edge id=":11556407763_1" function="internal">
        <lane id=":11556407763_1_0" index="0" disallow="tram rail_urban rail rail_electric rail_fast ship container cable_car subway aircraft wheelchair scooter drone" speed="8.33" length="0.10" shape="2461.62,1146.03 2461.62,1146.03" />
    </edge>
    <edge id=":11556407766_0" function="internal">
        <lane id=":11556407766_0_0" index="0" disallow="tram rail_urban rail rail_electric rail_fast ship container cable_car subway aircraft wheelchair scooter drone" speed="8.33" length="0.30" shape="2459.82,1163.81 2459.74,1164.10" />
    </edge>
    <edge id=":11556407766_1" function="internal">
        <lane id=":11556407766_1_0" index="0" disallow="tram rail_urban rail rail_electric rail_fast ship container cable_car subway aircraft wheelchair scooter drone" speed="8.33" length="0.30" shape="2456.67,1163.17 2456.76,1162.88" />
    </edge>
    <edge id=":11556420369_0" function="internal">
        <lane id=":11556420369_0_0" index="0" disallow="tram rail_urban rail rail_electric rail_fast ship container cable_car subway aircraft wheelchair scooter drone" speed="8.33" length="0.10" shape="2470.18,1158.81 2470.18,1158.81" />
    </edge>
    <edge id=":11663692391_0" function="internal">
        <lane id=":11663692391_0_0" index="0" disallow="tram rail_urban rail rail_electric rail_fast ship container cable_car subway aircraft wheelchair scooter drone" speed="8.33" length="0.10" shape="2795.22,150.70 2795.22,150.70" />
    </edge>
    <edge id=":11663692396_0" function="internal">
        <lane id=":11663692396_0_0" index="0" disallow="tram rail_urban rail rail_electric rail_fast ship container cable_car subway aircraft wheelchair scooter drone" speed="8.33" length="0.28" shape="2804.18,152.89 2803.90,152.83" />
    </edge>
    <edge id=":11663692406_0" function="internal">
        <lane id=":11663692406_0_0" index="0" disallow="tram rail_urban rail rail_electric rail_fast ship container cable_car subway aircraft wheelchair scooter drone" speed="8.33" length="0.31" shape="2738.69,235.89 2738.39,235.81" />
    </edge>
    <edge id=":11663692406_1" function="internal">
        <lane id=":11663692406_1_0" index="0" disallow="tram rail_urban rail rail_electric rail_fast ship container cable_car subway aircraft wheelchair scooter drone" speed="8.33" length="0.29" shape="2739.24,232.73 2739.52,232.80" />
    </edge>
    <edge id=":11693458686_0" function="internal">
        <lane id=":11693458686_0_0" index="0" disallow="tram rail_urban rail rail_electric rail_fast ship container cable_car subway aircraft wheelchair scooter drone" speed="8.33" length="0.30" shape="3442.81,174.27 3442.75,173.97" />
    </edge>
    <edge id=":11998166766_0" function="internal">
        <lane id=":11998166766_0_0" index="0" disallow="pedestrian bicycle tram rail_urban rail rail_electric rail_fast ship container cable_car subway aircraft wheelchair scooter drone" speed="16.67" length="0.28" shape="845.06,617.68 845.40,617.63" />
        <lane id=":11998166766_0_1" index="1" disallow="pedestrian bicycle tram rail_urban rail rail_electric rail_fast ship container cable_car subway aircraft wheelchair scooter drone" speed="16.67" length="0.28" shape="845.58,620.84 845.86,620.80" />
        <lane id=":11998166766_0_2" index="2" disallow="pedestrian bicycle tram rail_urban rail rail_electric rail_fast ship container cable_car subway aircraft wheelchair scooter drone" speed="16.67" length="0.28" shape="846.10,624.00 846.32,623.97" />
    </edge>
    <edge id=":1200874967_0" function="internal">
        <lane id=":1200874967_0_0" index="0" disallow="tram rail_urban rail rail_electric rail_fast ship container cable_car subway aircraft wheelchair scooter drone" speed="13.89" length="0.33" shape="581.47,1133.16 581.13,1133.15" />
    </edge>
    <edge id=":1200874967_1" function="internal">