<?xml version="1.0" encoding="UTF-8"?>

<!-- generated on 2026-01-09T14:53:43.272519+01:00 by Eclipse SUMO sumo v1_24_0+1845-01be9a8093d
-->

<sumoConfiguration xmlns:xsi="http://www.w3.org/2001/XMLSchema-instance" xsi:noNamespaceSchemaLocation="http://sumo.dlr.de/xsd/sumoConfiguration.xsd">

    <input>
        <net-file value="MiquelAllee.net.xml"/>
        <route-files value="MiquelAllee.rou.xml"/>
    </input>

</sumoConfiguration>
