<?xml version="1.0" encoding="UTF-8"?>

<!-- generated on 2026-01-09T14:46:11.686121+01:00 by Eclipse SUMO netedit v1_24_0+1845-01be9a8093d
-->

<routes xmlns:xsi="http://www.w3.org/2001/XMLSchema-instance" xsi:noNamespaceSchemaLocation="http://sumo.dlr.de/xsd/routes_file.xsd">
    <!-- Routes -->
    <route id="r_0" edges="24505113 97740638 23909869 23909870 97740637 258398594 4652501 23909840 23909844 23909845 258398591 929241513 229207412#0 229207412#1 20443962#0 20443962#1 1347528937 138601683#0 138601683#1 138601683#2 953778132#0 953778132#1 315030218#1 393344347#0 393344347#1 265499399#0 265499399#1 229207415#0 229207415#1 229207415#2 42759527#0 42759527#1 42759527#2 42759527#3 138478937#0 138478937#1 265499406#0 265499406#1 265499406#2 1161997241 439027698 1413218447 1413218448 314789427 1413218449 314789426#0 314789426#2 1267352664 314789428#1 265499418 314789435#0 314789435#1 314789436#0 84657869#2"/>
    <route id="r_1" edges="1025921876 23902460#0 23902460#1 23902460#2 23902461#0 23902461#1 4215179#0 4215179#1 4215179#2 4215179#3 4215179#4 44833848#0 44833848#1 44833848#2 258584400 315030211#0 260805885#1 260805885#2 62409871#0 62409871#2 62409871#3 1338909488#0 1338909488#1 314910663"/>
    <route id="r_10" edges="259408988#0 259408988#2 259408988#3 259408988#4 454115430#0 454115430#2 259408983#0 259408983#1 259408983#2 676073620#0 9792393#1 454115425#0 454115425#1 142526082#0 142526082#2 4708779 4693899#0 4693899#1 -149357417 -1320033536#3 -1320033536#2 -1320033536#1 -1320033536#0 454115423#0 454115423#1 142356185#1"/>
    <route id="r_11" edges="-142356185#1 -454115423#1 -454115423#0 -1254697472 -149357414 4599174#0 4599174#1 4599174#2 4599174#3 66993636#0 66993636#1 676073625 676073624#0 676073624#1 61893921#0 61893921#1 333260369#0 333260369#1 333260369#2 259408985#0 259408985#2"/>
    <route id="r_12" edges="24505113 4651388 44398667 225556329 293697195 258398614 258398605 258398615 23909881 23909882 696786180 4218424"/>
    <route id="r_13" edges="138347505#0 138347505#1 138347505#2 314789433#1 314789433#2 314789433#3 314789433#4 66227388#0 335993897 265499402#0 265499402#1 265499402#2 265499402#3 265499402#4 265499402#5 265499402#6 1267345325 439027697 1138010039 259409010#0 259409010#1 259409009#0 265499410 138478936 138478933#0 138478933#1 138478933#2 138478933#3 138478933#4 550920275 1086450111 1086450113 315030197 62788553#1 62788579#2 138497116#0 138497116#1 138497116#2 138601696#0 1084325332#2 1084325332#3 52060330#0 52060330#1 1268318127 305822761 20443908 331750841#0 331750841#1 908125589 4424616 258398603 929250438 138634156 4424311 258398596#0 258398596#1 258398596#3"/>
    <route id="r_14" edges="4221162 4221178 4220940 4827474#0 4220943#0 4220943#1 30710886#3"/>
    <route id="r_15" edges="377441831 258398601 4424615 264421444 929241513 229207412#0 229207412#1 20443962#0 20443962#1 1347528937 138601683#0 138601683#1 138601683#2 953778132#0 953778132#1 315030218#1 393344347#0 393344347#1 62788576 314910657 61403743#0 61403743#1 1092466745#0 1092466745#1 928995926 61403740 1410988376 1410988377#0 1410988377#1 314910653"/>
    <route id="r_16" edges="377441831 258398601 4340951 138634164 23909846 23909848 138634165 4701998 258398614 258398605 258398615 23909881 23909882 4651394 4651393 305822764 142541243 258398622 171856691 23909871 23909872"/>
    <route id="r_17" edges="4718994#0 34546653#0 34546653#1 34546653#2 34546653#3 34546653#4 -138601680#3 -138601680#2 -138601680#1 -138601680#0 20443908 331750841#0 331750841#1 908125589 47986355 23909842 491817112 4651395 258398615 23909881 23909882 696786180 4218424"/>
    <route id="r_18" edges="-4744719#3 -4744719#2 -4744719#1 -4744719#0 -1079661291 20443962#0 20443962#1 1347528937 138601683#0 138601683#1 138601683#2 953778132#0 953778132#1 260805885#1 260805885#2 62409871#0 62409871#2 62409871#3 1338909488#0 1338909488#1 314910663"/>
    <route id="r_19" edges="-104057354#3 -104057354#2 -104057354#1 104057360#0 104057360#2 104057360#3 1025921871 -104057353#3 -104057353#2 -104057353#1 -104057353#0 104057352 1025921872#0 1025921872#1 1025921872#2 143382532 1126702355#0 1126702355#1 1126702355#2 -1025921874 -1090855596#1 -1090855596#0 -28757019 922922704#0 922922704#1 122505440#0 122505440#1 1025921880#0 1025921880#3 23902460#0 23902460#1 23902460#2 23902461#0 23902461#1 4215179#0 4215179#1 4215179#2 4215179#3 4215179#4 44833848#0 44833848#1 44833848#2 258584400 315030211#0 1084325332#2 1084325332#3 52060330#0 52060330#1 1268318127 305822761 20443908 331750841#0 331750841#1 908125589 47986355 23909842 491817112 138601667 305822763 4712783 23909841 171856691 23909871 23909872"/>
    <route id="r_2" edges="134682591#0 134682591#1 134682591#3 1338909490#0 1338909490#1 1338909490#2 1338909490#3 44833847 138601673#0 44833850#2 44833850#3 44833850#4 -4215179#4 -4215179#3 -4215179#2 -4215179#1 -4215179#0 -23902461#1 -23902461#0 4688277#0 4688277#1 4688277#5"/>
    <route id="r_20" edges="66227364#0 66227364#1 474601148 132964153#1 132964153#2 132964154 850526279 438652661 438648463 4723927 1288871249 130876649#0 130876649#1 259409010#1 259409009#0 265499410 138478936 138478933#0 138478933#1 138478933#2 138478933#3 138478933#4 550920275 1086450111 1086450113 315030197 62788553#1 62788579#2 138497116#0 138497116#1 138497116#2 138601696#0 1084325332#2 1084325332#3 52060330#0 52060330#1 1268318127 305822761 20443908 331750841#0 331750841#1 908125589 4424616 258398603 929250438 138634156 4424311 138634184#0 138634184#1 138634153#0 138634153#1 138634153#2 138634153#3 147525021#0 147525021#1 147525021#2 147525021#3 238457589#0 238457589#1 238457589#2 238457589#3 238457589#4 238457589#5 238457589#6 1079903344#0 1079903344#1 4741731#0 4741731#1 -30070346"/>
    <route id="r_3" edges="138347505#0 138347505#1 138347505#2 314789433#1 314789433#2 314789433#3 314789433#4 66227388#0 335993897 265499402#0 265499402#1 265499402#2 265499402#3 265499402#4 265499402#5 265499402#6 1267345325 439027697 1138010039 259409010#0 259409010#1 259409009#0 265499410 138478936 138478933#0 138478933#1 138478933#2 138478933#3 138478933#4 550920275 1086450111 1086450113 315030197 62788553#1 62788579#2 138497116#0 138497116#1 138497116#2 138601696#0 1084325332#2 1084325332#3 52060330#0 52060330#1 1268318127 305822761 20443908 331750841#0 331750841#1 908125589 47986355 23909842 491817112 138601667 305822763 4712783 23909841 171856691 23909871 23909872"/>
    <route id="r_4" edges="314910658 265229647#1 25991150#0 25991150#1 265229649#0 265229649#1 265229649#2 315030208#0 315030208#1 23777340#2 62788580 154879799#0 1081644596#1 1081644596#3 1329585535 1332809651 154879798#0 154879798#1 154879798#2 154879798#3 154879798#5"/>
    <route id="r_5" edges="375571425#0 1081644598 315030209#0 315030209#1 315030209#3 154879800#0 491834007 315030207#0 315030207#1 491834316 1329587156 62788571#1 62788576 314910657 61403739#0 61403739#1 61403739#2 26330928 1084499717 265229648#0 265229648#1"/>
    <route id="r_6" edges="377441831 258398601 4340951 138634164 23909846 23909848 138634165 4701998 258398614 258398605 258398615 23909881 23909882 696786180 4218424"/>
    <route id="r_7" edges="4948257 258398607 4701996 23909878 23909879 4340950 23909850 23909851 258398617 258398619 4424311 258398596#0 258398596#1 258398596#3"/>
    <route id="r_8" edges="142541239 258398607 4701996 23909878 23909879 4651384 258398594 4652501 23909840 23909844 23909845 258398591 929241513 229207412#0 229207412#1 20443962#0 20443962#1 1347528937 138601683#0 138601683#1 138601683#2 953778132#0 953778132#1 315030218#1 393344347#0 393344347#1 265499399#0 265499399#1 229207415#0 229207415#1 229207415#2 42759527#0 42759527#1 42759527#2 42759527#3 138478937#0 138478937#1 265499406#0 265499406#1 265499406#2 1161997241 439027698 1413218447 1413218448 314789427 1413218449 314789426#0 314789426#2 1267352664 314789428#1 265499418 314789435#0 314789435#1 314789436#0 84657869#2"/>
    <route id="r_9" edges="171934808#0 171934808#1 171934808#2 152445636#2 4726265#0 4726265#1 665610741 4726271#1 138347489#1 138347489#2 138347489#3 138347489#4 138347489#5 138347489#6 138347489#8 153897369#2 153897369#3 153897369#4 4778724"/>
</routes>
